<nodes>
    <node id="n" x="0.0" y="200.0" type="priority"/>
    <node id="s" x="0.0" y="-200.0" type="priority"/>
    <node id="e" x="300.0" y="0.0" type="priority"/>
    <node id="w" x="-300.0" y="0.0" type="priority"/>
    <node id="t" x="0.0" y="0.0" type="traffic_light" tlType="actuated" tl="tl_1"/>
</nodes>
