<routes>
    <vehicle id="1.0" depart="2">
        <route edges="A1A AC CG GJ JI IL LL1" />
    </vehicle>
    <vehicle id="3.0" depart="2">
        <route edges="B1B BD DG GJ JI IL LL1" />
    </vehicle>
    <vehicle id="2.0" depart="4">
        <route edges="A1A AC CD DH HK KM MM1" />
    </vehicle>
    <vehicle id="4.0" depart="4">
        <route edges="B1B BE EH HK KM MM1" />
    </vehicle>
    <vehicle id="1.1" depart="6">
        <route edges="A1A AC CG GJ JI IL LL1" />
    </vehicle>
    <vehicle id="4.1" depart="7">
        <route edges="B1B BE EH HK KM MM1" />
    </vehicle>
    <vehicle id="1.2" depart="10">
        <route edges="A1A AC CG GJ JI IL LL1" />
    </vehicle>
    <vehicle id="3.1" depart="10">
        <route edges="B1B BD DG GJ JI IL LL1" />
    </vehicle>
    <vehicle id="4.2" depart="12">
        <route edges="B1B BE EH HK KM MM1" />
    </vehicle>
    <vehicle id="2.1" depart="13">
        <route edges="A1A AC CD DH HK KM MM1" />
    </vehicle>
    <vehicle id="3.2" depart="15">
        <route edges="B1B BD DG GJ JI IL LL1" />
    </vehicle>
    <vehicle id="1.3" depart="16">
        <route edges="A1A AC CG GJ JI IL LL1" />
    </vehicle>
    <vehicle id="4.3" depart="18">
        <route edges="B1B BE EH HK KM MM1" />
    </vehicle>
    <vehicle id="1.4" depart="19">
        <route edges="A1A AC CG GJ JI IL LL1" />
    </vehicle>
    <vehicle id="4.4" depart="21">
        <route edges="B1B BE EH HK KM MM1" />
    </vehicle>
    <vehicle id="2.2" depart="22">
        <route edges="A1A AC CD DH HK KM MM1" />
    </vehicle>
    <vehicle id="3.3" depart="24">
        <route edges="B1B BD DG GJ JI IL LL1" />
    </vehicle>
    <vehicle id="1.5" depart="25">
        <route edges="A1A AC CG GJ JI IL LL1" />
    </vehicle>
    <vehicle id="4.5" depart="26">
        <route edges="B1B BE EH HK KM MM1" />
    </vehicle>
    <vehicle id="1.6" depart="28">
        <route edges="A1A AC CG GJ JI IL LL1" />
    </vehicle>
    <vehicle id="3.4" depart="29">
        <route edges="B1B BD DG GJ JI IL LL1" />
    </vehicle>
    <vehicle id="4.6" depart="31">
        <route edges="B1B BE EH HK KM MM1" />
    </vehicle>
    <vehicle id="2.3" depart="32">
        <route edges="A1A AC CD DH HK KM MM1" />
    </vehicle>
    <vehicle id="4.7" depart="33">
        <route edges="B1B BE EH HK KM MM1" />
    </vehicle>
    <vehicle id="1.7" depart="35">
        <route edges="A1A AC CG GJ JI IL LL1" />
    </vehicle>
    <vehicle id="3.5" depart="36">
        <route edges="B1B BD DG GJ JI IL LL1" />
    </vehicle>
    <vehicle id="1.8" depart="38">
        <route edges="A1A AC CG GJ JI IL LL1" />
    </vehicle>
    <vehicle id="4.8" depart="38">
        <route edges="B1B BE EH HK KM MM1" />
    </vehicle>
    <vehicle id="3.6" depart="40">
        <route edges="B1B BD DG GJ JI IL LL1" />
    </vehicle>
    <vehicle id="2.4" depart="41">
        <route edges="A1A AC CD DH HK KM MM1" />
    </vehicle>
    <vehicle id="4.9" depart="42">
        <route edges="B1B BE EH HK KM MM1" />
    </vehicle>
    <vehicle id="1.9" depart="44">
        <route edges="A1A AC CG GJ JI IL LL1" />
    </vehicle>
    <vehicle id="4.10" depart="44">
        <route edges="B1B BE EH HK KM MM1" />
    </vehicle>
    <vehicle id="1.10" depart="47">
        <route edges="A1A AC CG GJ JI IL LL1" />
    </vehicle>
    <vehicle id="3.7" depart="47">
        <route edges="B1B BD DG GJ JI IL LL1" />
    </vehicle>
    <vehicle id="4.11" depart="49">
        <route edges="B1B BE EH HK KM MM1" />
    </vehicle>
    <vehicle id="2.5" depart="50">
        <route edges="A1A AC CD DH HK KM MM1" />
    </vehicle>
    <vehicle id="3.8" depart="51">
        <route edges="B1B BD DG GJ JI IL LL1" />
    </vehicle>
    <vehicle id="1.11" depart="54">
        <route edges="A1A AC CG GJ JI IL LL1" />
    </vehicle>
    <vehicle id="4.12" depart="54">
        <route edges="B1B BE EH HK KM MM1" />
    </vehicle>
    <vehicle id="4.13" depart="56">
        <route edges="B1B BE EH HK KM MM1" />
    </vehicle>
    <vehicle id="1.12" depart="57">
        <route edges="A1A AC CG GJ JI IL LL1" />
    </vehicle>
    <vehicle id="2.6" depart="59">
        <route edges="A1A AC CD DH HK KM MM1" />
    </vehicle>
    <vehicle id="3.9" depart="59">
        <route edges="B1B BD DG GJ JI IL LL1" />
    </vehicle>
    <vehicle id="4.14" depart="61">
        <route edges="B1B BE EH HK KM MM1" />
    </vehicle>
    <vehicle id="1.13" depart="63">
        <route edges="A1A AC CG GJ JI IL LL1" />
    </vehicle>
    <vehicle id="3.10" depart="64">
        <route edges="B1B BD DG GJ JI IL LL1" />
    </vehicle>
    <vehicle id="1.14" depart="66">
        <route edges="A1A AC CG GJ JI IL LL1" />
    </vehicle>
    <vehicle id="4.15" depart="66">
        <route edges="B1B BE EH HK KM MM1" />
    </vehicle>
    <vehicle id="4.16" depart="68">
        <route edges="B1B BE EH HK KM MM1" />
    </vehicle>
    <vehicle id="2.7" depart="69">
        <route edges="A1A AC CD DH HK KM MM1" />
    </vehicle>
    <vehicle id="3.11" depart="71">
        <route edges="B1B BD DG GJ JI IL LL1" />
    </vehicle>
    <vehicle id="1.15" depart="72">
        <route edges="A1A AC CG GJ JI IL LL1" />
    </vehicle>
    <vehicle id="4.17" depart="73">
        <route edges="B1B BE EH HK KM MM1" />
    </vehicle>
    <vehicle id="1.16" depart="75">
        <route edges="A1A AC CG GJ JI IL LL1" />
    </vehicle>
    <vehicle id="3.12" depart="75">
        <route edges="B1B BD DG GJ JI IL LL1" />
    </vehicle>
    <vehicle id="4.18" depart="77">
        <route edges="B1B BE EH HK KM MM1" />
    </vehicle>
    <vehicle id="2.8" depart="78">
        <route edges="A1A AC CD DH HK KM MM1" />
    </vehicle>
    <vehicle id="4.19" depart="79">
        <route edges="B1B BE EH HK KM MM1" />
    </vehicle>
    <vehicle id="1.17" depart="81">
        <route edges="A1A AC CG GJ JI IL LL1" />
    </vehicle>
    <vehicle id="3.13" depart="82">
        <route edges="B1B BD DG GJ JI IL LL1" />
    </vehicle>
    <vehicle id="1.18" depart="84">
        <route edges="A1A AC CG GJ JI IL LL1" />
    </vehicle>
    <vehicle id="4.20" depart="84">
        <route edges="B1B BE EH HK KM MM1" />
    </vehicle>
    <vehicle id="3.14" depart="86">
        <route edges="B1B BD DG GJ JI IL LL1" />
    </vehicle>
    <vehicle id="2.9" depart="87">
        <route edges="A1A AC CD DH HK KM MM1" />
    </vehicle>
    <vehicle id="4.21" depart="88">
        <route edges="B1B BE EH HK KM MM1" />
    </vehicle>
    <vehicle id="1.19" depart="90">
        <route edges="A1A AC CG GJ JI IL LL1" />
    </vehicle>
    <vehicle id="4.22" depart="90">
        <route edges="B1B BE EH HK KM MM1" />
    </vehicle>
    <vehicle id="1.20" depart="93">
        <route edges="A1A AC CG GJ JI IL LL1" />
    </vehicle>
    <vehicle id="3.15" depart="93">
        <route edges="B1B BD DG GJ JI IL LL1" />
    </vehicle>
    <vehicle id="4.23" depart="95">
        <route edges="B1B BE EH HK KM MM1" />
    </vehicle>
    <vehicle id="2.10" depart="96">
        <route edges="A1A AC CD DH HK KM MM1" />
    </vehicle>
    <vehicle id="3.16" depart="98">
        <route edges="B1B BD DG GJ JI IL LL1" />
    </vehicle>
    <vehicle id="1.21" depart="99">
        <route edges="A1A AC CG GJ JI IL LL1" />
    </vehicle>
    <vehicle id="4.24" depart="100">
        <route edges="B1B BE EH HK KM MM1" />
    </vehicle>
    <vehicle id="1.22" depart="102">
        <route edges="A1A AC CG GJ JI IL LL1" />
    </vehicle>
    <vehicle id="4.25" depart="102">
        <route edges="B1B BE EH HK KM MM1" />
    </vehicle>
    <vehicle id="2.11" depart="105">
        <route edges="A1A AC CD DH HK KM MM1" />
    </vehicle>
    <vehicle id="3.17" depart="105">
        <route edges="B1B BD DG GJ JI IL LL1" />
    </vehicle>
    <vehicle id="4.26" depart="107">
        <route edges="B1B BE EH HK KM MM1" />
    </vehicle>
    <vehicle id="1.23" depart="108">
        <route edges="A1A AC CG GJ JI IL LL1" />
    </vehicle>
    <vehicle id="3.18" depart="109">
        <route edges="B1B BD DG GJ JI IL LL1" />
    </vehicle>
    <vehicle id="1.24" depart="111">
        <route edges="A1A AC CG GJ JI IL LL1" />
    </vehicle>
    <vehicle id="4.27" depart="111">
        <route edges="B1B BE EH HK KM MM1" />
    </vehicle>
    <vehicle id="4.28" depart="113">
        <route edges="B1B BE EH HK KM MM1" />
    </vehicle>
    <vehicle id="2.12" depart="114">
        <route edges="A1A AC CD DH HK KM MM1" />
    </vehicle>
    <vehicle id="3.19" depart="116">
        <route edges="B1B BD DG GJ JI IL LL1" />
    </vehicle>
    <vehicle id="1.25" depart="117">
        <route edges="A1A AC CG GJ JI IL LL1" />
    </vehicle>
    <vehicle id="4.29" depart="118">
        <route edges="B1B BE EH HK KM MM1" />
    </vehicle>
    <vehicle id="1.26" depart="121">
        <route edges="A1A AC CG GJ JI IL LL1" />
    </vehicle>
    <vehicle id="3.20" depart="121">
        <route edges="B1B BD DG GJ JI IL LL1" />
    </vehicle>
    <vehicle id="2.13" depart="124">
        <route edges="A1A AC CD DH HK KM MM1" />
    </vehicle>
    <vehicle id="4.30" depart="124">
        <route edges="B1B BE EH HK KM MM1" />
    </vehicle>
    <vehicle id="4.31" depart="126">
        <route edges="B1B BE EH HK KM MM1" />
    </vehicle>
    <vehicle id="1.27" depart="127">
        <route edges="A1A AC CG GJ JI IL LL1" />
    </vehicle>
    <vehicle id="3.21" depart="129">
        <route edges="B1B BD DG GJ JI IL LL1" />
    </vehicle>
    <vehicle id="1.28" depart="130">
        <route edges="A1A AC CG GJ JI IL LL1" />
    </vehicle>
    <vehicle id="4.32" depart="131">
        <route edges="B1B BE EH HK KM MM1" />
    </vehicle>
    <vehicle id="2.14" depart="133">
        <route edges="A1A AC CD DH HK KM MM1" />
    </vehicle>
    <vehicle id="3.22" depart="134">
        <route edges="B1B BD DG GJ JI IL LL1" />
    </vehicle>
    <vehicle id="1.29" depart="136">
        <route edges="A1A AC CG GJ JI IL LL1" />
    </vehicle>
    <vehicle id="4.33" depart="136">
        <route edges="B1B BE EH HK KM MM1" />
    </vehicle>
    <vehicle id="4.34" depart="138">
        <route edges="B1B BE EH HK KM MM1" />
    </vehicle>
    <vehicle id="1.30" depart="139">
        <route edges="A1A AC CG GJ JI IL LL1" />
    </vehicle>
    <vehicle id="3.23" depart="141">
        <route edges="B1B BD DG GJ JI IL LL1" />
    </vehicle>
    <vehicle id="2.15" depart="142">
        <route edges="A1A AC CD DH HK KM MM1" />
    </vehicle>
    <vehicle id="4.35" depart="143">
        <route edges="B1B BE EH HK KM MM1" />
    </vehicle>
    <vehicle id="1.31" depart="145">
        <route edges="A1A AC CG GJ JI IL LL1" />
    </vehicle>
    <vehicle id="3.24" depart="145">
        <route edges="B1B BD DG GJ JI IL LL1" />
    </vehicle>
    <vehicle id="4.36" depart="147">
        <route edges="B1B BE EH HK KM MM1" />
    </vehicle>
    <vehicle id="1.32" depart="148">
        <route edges="A1A AC CG GJ JI IL LL1" />
    </vehicle>
    <vehicle id="4.37" depart="149">
        <route edges="B1B BE EH HK KM MM1" />
    </vehicle>
    <vehicle id="2.16" depart="151">
        <route edges="A1A AC CD DH HK KM MM1" />
    </vehicle>
    <vehicle id="3.25" depart="152">
        <route edges="B1B BD DG GJ JI IL LL1" />
    </vehicle>
    <vehicle id="1.33" depart="154">
        <route edges="A1A AC CG GJ JI IL LL1" />
    </vehicle>
    <vehicle id="4.38" depart="154">
        <route edges="B1B BE EH HK KM MM1" />
    </vehicle>
    <vehicle id="3.26" depart="156">
        <route edges="B1B BD DG GJ JI IL LL1" />
    </vehicle>
    <vehicle id="1.34" depart="157">
        <route edges="A1A AC CG GJ JI IL LL1" />
    </vehicle>
    <vehicle id="4.39" depart="159">
        <route edges="B1B BE EH HK KM MM1" />
    </vehicle>
    <vehicle id="2.17" depart="160">
        <route edges="A1A AC CD DH HK KM MM1" />
    </vehicle>
    <vehicle id="4.40" depart="161">
        <route edges="B1B BE EH HK KM MM1" />
    </vehicle>
    <vehicle id="1.35" depart="163">
        <route edges="A1A AC CG GJ JI IL LL1" />
    </vehicle>
    <vehicle id="3.27" depart="164">
        <route edges="B1B BD DG GJ JI IL LL1" />
    </vehicle>
    <vehicle id="1.36" depart="166">
        <route edges="A1A AC CG GJ JI IL LL1" />
    </vehicle>
    <vehicle id="4.41" depart="166">
        <route edges="B1B BE EH HK KM MM1" />
    </vehicle>
    <vehicle id="3.28" depart="168">
        <route edges="B1B BD DG GJ JI IL LL1" />
    </vehicle>
    <vehicle id="2.18" depart="169">
        <route edges="A1A AC CD DH HK KM MM1" />
    </vehicle>
    <vehicle id="4.42" depart="170">
        <route edges="B1B BE EH HK KM MM1" />
    </vehicle>
    <vehicle id="1.37" depart="172">
        <route edges="A1A AC CG GJ JI IL LL1" />
    </vehicle>
    <vehicle id="4.43" depart="172">
        <route edges="B1B BE EH HK KM MM1" />
    </vehicle>
    <vehicle id="1.38" depart="175">
        <route edges="A1A AC CG GJ JI IL LL1" />
    </vehicle>
    <vehicle id="3.29" depart="175">
        <route edges="B1B BD DG GJ JI IL LL1" />
    </vehicle>
    <vehicle id="4.44" depart="177">
        <route edges="B1B BE EH HK KM MM1" />
    </vehicle>
    <vehicle id="2.19" depart="178">
        <route edges="A1A AC CD DH HK KM MM1" />
    </vehicle>
    <vehicle id="3.30" depart="180">
        <route edges="B1B BD DG GJ JI IL LL1" />
    </vehicle>
    <vehicle id="1.39" depart="181">
        <route edges="A1A AC CG GJ JI IL LL1" />
    </vehicle>
    <vehicle id="4.45" depart="182">
        <route edges="B1B BE EH HK KM MM1" />
    </vehicle>
    <vehicle id="1.40" depart="184">
        <route edges="A1A AC CG GJ JI IL LL1" />
    </vehicle>
    <vehicle id="4.46" depart="184">
        <route edges="B1B BE EH HK KM MM1" />
    </vehicle>
    <vehicle id="2.20" depart="187">
        <route edges="A1A AC CD DH HK KM MM1" />
    </vehicle>
    <vehicle id="3.31" depart="187">
        <route edges="B1B BD DG GJ JI IL LL1" />
    </vehicle>
    <vehicle id="4.47" depart="189">
        <route edges="B1B BE EH HK KM MM1" />
    </vehicle>
    <vehicle id="1.41" depart="190">
        <route edges="A1A AC CG GJ JI IL LL1" />
    </vehicle>
    <vehicle id="3.32" depart="191">
        <route edges="B1B BD DG GJ JI IL LL1" />
    </vehicle>
    <vehicle id="1.42" depart="193">
        <route edges="A1A AC CG GJ JI IL LL1" />
    </vehicle>
    <vehicle id="4.48" depart="193">
        <route edges="B1B BE EH HK KM MM1" />
    </vehicle>
    <vehicle id="4.49" depart="195">
        <route edges="B1B BE EH HK KM MM1" />
    </vehicle>
    <vehicle id="2.21" depart="196">
        <route edges="A1A AC CD DH HK KM MM1" />
    </vehicle>
    <vehicle id="3.33" depart="198">
        <route edges="B1B BD DG GJ JI IL LL1" />
    </vehicle>
    <vehicle id="1.43" depart="199">
        <route edges="A1A AC CG GJ JI IL LL1" />
    </vehicle>
    <vehicle id="4.50" depart="201">
        <route edges="B1B BE EH HK KM MM1" />
    </vehicle>
    <vehicle id="1.44" depart="202">
        <route edges="A1A AC CG GJ JI IL LL1" />
    </vehicle>
    <vehicle id="3.34" depart="203">
        <route edges="B1B BD DG GJ JI IL LL1" />
    </vehicle>
    <vehicle id="2.22" depart="205">
        <route edges="A1A AC CD DH HK KM MM1" />
    </vehicle>
    <vehicle id="4.51" depart="205">
        <route edges="B1B BE EH HK KM MM1" />
    </vehicle>
    <vehicle id="4.52" depart="207">
        <route edges="B1B BE EH HK KM MM1" />
    </vehicle>
    <vehicle id="1.45" depart="208">
        <route edges="A1A AC CG GJ JI IL LL1" />
    </vehicle>
    <vehicle id="3.35" depart="210">
        <route edges="B1B BD DG GJ JI IL LL1" />
    </vehicle>
    <vehicle id="1.46" depart="211">
        <route edges="A1A AC CG GJ JI IL LL1" />
    </vehicle>
    <vehicle id="4.53" depart="212">
        <route edges="B1B BE EH HK KM MM1" />
    </vehicle>
    <vehicle id="2.23" depart="214">
        <route edges="A1A AC CD DH HK KM MM1" />
    </vehicle>
    <vehicle id="3.36" depart="214">
        <route edges="B1B BD DG GJ JI IL LL1" />
    </vehicle>
    <vehicle id="4.54" depart="216">
        <route edges="B1B BE EH HK KM MM1" />
    </vehicle>
    <vehicle id="1.47" depart="217">
        <route edges="A1A AC CG GJ JI IL LL1" />
    </vehicle>
    <vehicle id="4.55" depart="218">
        <route edges="B1B BE EH HK KM MM1" />
    </vehicle>
    <vehicle id="1.48" depart="220">
        <route edges="A1A AC CG GJ JI IL LL1" />
    </vehicle>
    <vehicle id="3.37" depart="221">
        <route edges="B1B BD DG GJ JI IL LL1" />
    </vehicle>
    <vehicle id="2.24" depart="223">
        <route edges="A1A AC CD DH HK KM MM1" />
    </vehicle>
    <vehicle id="4.56" depart="223">
        <route edges="B1B BE EH HK KM MM1" />
    </vehicle>
    <vehicle id="1.49" depart="226">
        <route edges="A1A AC CG GJ JI IL LL1" />
    </vehicle>
    <vehicle id="3.38" depart="226">
        <route edges="B1B BD DG GJ JI IL LL1" />
    </vehicle>
    <vehicle id="4.57" depart="228">
        <route edges="B1B BE EH HK KM MM1" />
    </vehicle>
    <vehicle id="1.50" depart="229">
        <route edges="A1A AC CG GJ JI IL LL1" />
    </vehicle>
    <vehicle id="4.58" depart="230">
        <route edges="B1B BE EH HK KM MM1" />
    </vehicle>
    <vehicle id="2.25" depart="232">
        <route edges="A1A AC CD DH HK KM MM1" />
    </vehicle>
    <vehicle id="3.39" depart="233">
        <route edges="B1B BD DG GJ JI IL LL1" />
    </vehicle>
    <vehicle id="1.51" depart="235">
        <route edges="A1A AC CG GJ JI IL LL1" />
    </vehicle>
    <vehicle id="4.59" depart="235">
        <route edges="B1B BE EH HK KM MM1" />
    </vehicle>
    <vehicle id="1.52" depart="238">
        <route edges="A1A AC CG GJ JI IL LL1" />
    </vehicle>
    <vehicle id="3.40" depart="238">
        <route edges="B1B BD DG GJ JI IL LL1" />
    </vehicle>
    <vehicle id="4.60" depart="240">
        <route edges="B1B BE EH HK KM MM1" />
    </vehicle>
    <vehicle id="2.26" depart="241">
        <route edges="A1A AC CD DH HK KM MM1" />
    </vehicle>
    <vehicle id="4.61" depart="242">
        <route edges="B1B BE EH HK KM MM1" />
    </vehicle>
    <vehicle id="1.53" depart="244">
        <route edges="A1A AC CG GJ JI IL LL1" />
    </vehicle>
    <vehicle id="3.41" depart="245">
        <route edges="B1B BD DG GJ JI IL LL1" />
    </vehicle>
    <vehicle id="1.54" depart="247">
        <route edges="A1A AC CG GJ JI IL LL1" />
    </vehicle>
    <vehicle id="4.62" depart="247">
        <route edges="B1B BE EH HK KM MM1" />
    </vehicle>
    <vehicle id="2.27" depart="250">
        <route edges="A1A AC CD DH HK KM MM1" />
    </vehicle>
    <vehicle id="3.42" depart="250">
        <route edges="B1B BD DG GJ JI IL LL1" />
    </vehicle>
    <vehicle id="4.63" depart="252">
        <route edges="B1B BE EH HK KM MM1" />
    </vehicle>
    <vehicle id="1.55" depart="253">
        <route edges="A1A AC CG GJ JI IL LL1" />
    </vehicle>
    <vehicle id="4.64" depart="254">
        <route edges="B1B BE EH HK KM MM1" />
    </vehicle>
    <vehicle id="1.56" depart="256">
        <route edges="A1A AC CG GJ JI IL LL1" />
    </vehicle>
    <vehicle id="3.43" depart="257">
        <route edges="B1B BD DG GJ JI IL LL1" />
    </vehicle>
    <vehicle id="2.28" depart="259">
        <route edges="A1A AC CD DH HK KM MM1" />
    </vehicle>
    <vehicle id="4.65" depart="259">
        <route edges="B1B BE EH HK KM MM1" />
    </vehicle>
    <vehicle id="3.44" depart="261">
        <route edges="B1B BD DG GJ JI IL LL1" />
    </vehicle>
    <vehicle id="1.57" depart="262">
        <route edges="A1A AC CG GJ JI IL LL1" />
    </vehicle>
    <vehicle id="4.66" depart="263">
        <route edges="B1B BE EH HK KM MM1" />
    </vehicle>
    <vehicle id="1.58" depart="266">
        <route edges="A1A AC CG GJ JI IL LL1" />
    </vehicle>
    <vehicle id="4.67" depart="266">
        <route edges="B1B BE EH HK KM MM1" />
    </vehicle>
    <vehicle id="2.29" depart="269">
        <route edges="A1A AC CD DH HK KM MM1" />
    </vehicle>
    <vehicle id="3.45" depart="269">
        <route edges="B1B BD DG GJ JI IL LL1" />
    </vehicle>
    <vehicle id="4.68" depart="271">
        <route edges="B1B BE EH HK KM MM1" />
    </vehicle>
    <vehicle id="1.59" depart="272">
        <route edges="A1A AC CG GJ JI IL LL1" />
    </vehicle>
    <vehicle id="3.46" depart="273">
        <route edges="B1B BD DG GJ JI IL LL1" />
    </vehicle>
    <vehicle id="1.60" depart="275">
        <route edges="A1A AC CG GJ JI IL LL1" />
    </vehicle>
    <vehicle id="4.69" depart="275">
        <route edges="B1B BE EH HK KM MM1" />
    </vehicle>
    <vehicle id="4.70" depart="277">
        <route edges="B1B BE EH HK KM MM1" />
    </vehicle>
    <vehicle id="2.30" depart="278">
        <route edges="A1A AC CD DH HK KM MM1" />
    </vehicle>
    <vehicle id="3.47" depart="280">
        <route edges="B1B BD DG GJ JI IL LL1" />
    </vehicle>
    <vehicle id="1.61" depart="281">
        <route edges="A1A AC CG GJ JI IL LL1" />
    </vehicle>
    <vehicle id="4.71" depart="283">
        <route edges="B1B BE EH HK KM MM1" />
    </vehicle>
    <vehicle id="1.62" depart="284">
        <route edges="A1A AC CG GJ JI IL LL1" />
    </vehicle>
    <vehicle id="3.48" depart="285">
        <route edges="B1B BD DG GJ JI IL LL1" />
    </vehicle>
    <vehicle id="2.31" depart="287">
        <route edges="A1A AC CD DH HK KM MM1" />
    </vehicle>
    <vehicle id="4.72" depart="287">
        <route edges="B1B BE EH HK KM MM1" />
    </vehicle>
    <vehicle id="4.73" depart="289">
        <route edges="B1B BE EH HK KM MM1" />
    </vehicle>
    <vehicle id="1.63" depart="290">
        <route edges="A1A AC CG GJ JI IL LL1" />
    </vehicle>
    <vehicle id="3.49" depart="292">
        <route edges="B1B BD DG GJ JI IL LL1" />
    </vehicle>
    <vehicle id="1.64" depart="293">
        <route edges="A1A AC CG GJ JI IL LL1" />
    </vehicle>
    <vehicle id="4.74" depart="295">
        <route edges="B1B BE EH HK KM MM1" />
    </vehicle>
    <vehicle id="2.32" depart="296">
        <route edges="A1A AC CD DH HK KM MM1" />
    </vehicle>
    <vehicle id="3.50" depart="297">
        <route edges="B1B BD DG GJ JI IL LL1" />
    </vehicle>
    <vehicle id="1.65" depart="299">
        <route edges="A1A AC CG GJ JI IL LL1" />
    </vehicle>
    <vehicle id="4.75" depart="299">
        <route edges="B1B BE EH HK KM MM1" />
    </vehicle>
    <vehicle id="4.76" depart="301">
        <route edges="B1B BE EH HK KM MM1" />
    </vehicle>
    <vehicle id="1.66" depart="302">
        <route edges="A1A AC CG GJ JI IL LL1" />
    </vehicle>
    <vehicle id="3.51" depart="304">
        <route edges="B1B BD DG GJ JI IL LL1" />
    </vehicle>
    <vehicle id="2.33" depart="305">
        <route edges="A1A AC CD DH HK KM MM1" />
    </vehicle>
    <vehicle id="4.77" depart="306">
        <route edges="B1B BE EH HK KM MM1" />
    </vehicle>
    <vehicle id="3.52" depart="308">
        <route edges="B1B BD DG GJ JI IL LL1" />
    </vehicle>
    <vehicle id="1.67" depart="309">
        <route edges="A1A AC CG GJ JI IL LL1" />
    </vehicle>
    <vehicle id="4.78" depart="310">
        <route edges="B1B BE EH HK KM MM1" />
    </vehicle>
    <vehicle id="1.68" depart="312">
        <route edges="A1A AC CG GJ JI IL LL1" />
    </vehicle>
    <vehicle id="4.79" depart="312">
        <route edges="B1B BE EH HK KM MM1" />
    </vehicle>
    <vehicle id="2.34" depart="315">
        <route edges="A1A AC CD DH HK KM MM1" />
    </vehicle>
    <vehicle id="3.53" depart="315">
        <route edges="B1B BD DG GJ JI IL LL1" />
    </vehicle>
    <vehicle id="1.69" depart="318">
        <route edges="A1A AC CG GJ JI IL LL1" />
    </vehicle>
    <vehicle id="4.80" depart="318">
        <route edges="B1B BE EH HK KM MM1" />
    </vehicle>
    <vehicle id="3.54" depart="320">
        <route edges="B1B BD DG GJ JI IL LL1" />
    </vehicle>
    <vehicle id="1.70" depart="321">
        <route edges="A1A AC CG GJ JI IL LL1" />
    </vehicle>
    <vehicle id="4.81" depart="322">
        <route edges="B1B BE EH HK KM MM1" />
    </vehicle>
    <vehicle id="2.35" depart="324">
        <route edges="A1A AC CD DH HK KM MM1" />
    </vehicle>
    <vehicle id="4.82" depart="324">
        <route edges="B1B BE EH HK KM MM1" />
    </vehicle>
    <vehicle id="1.71" depart="327">
        <route edges="A1A AC CG GJ JI IL LL1" />
    </vehicle>
    <vehicle id="3.55" depart="327">
        <route edges="B1B BD DG GJ JI IL LL1" />
    </vehicle>
    <vehicle id="1.72" depart="330">
        <route edges="A1A AC CG GJ JI IL LL1" />
    </vehicle>
    <vehicle id="4.83" depart="330">
        <route edges="B1B BE EH HK KM MM1" />
    </vehicle>
    <vehicle id="2.36" depart="333">
        <route edges="A1A AC CD DH HK KM MM1" />
    </vehicle>
    <vehicle id="3.56" depart="333">
        <route edges="B1B BD DG GJ JI IL LL1" />
    </vehicle>
    <vehicle id="1.73" depart="336">
        <route edges="A1A AC CG GJ JI IL LL1" />
    </vehicle>
    <vehicle id="4.84" depart="336">
        <route edges="B1B BE EH HK KM MM1" />
    </vehicle>
    <vehicle id="4.85" depart="338">
        <route edges="B1B BE EH HK KM MM1" />
    </vehicle>
    <vehicle id="1.74" depart="339">
        <route edges="A1A AC CG GJ JI IL LL1" />
    </vehicle>
    <vehicle id="3.57" depart="341">
        <route edges="B1B BD DG GJ JI IL LL1" />
    </vehicle>
    <vehicle id="2.37" depart="342">
        <route edges="A1A AC CD DH HK KM MM1" />
    </vehicle>
    <vehicle id="4.86" depart="343">
        <route edges="B1B BE EH HK KM MM1" />
    </vehicle>
    <vehicle id="1.75" depart="344">
        <route edges="A1A AC CG GJ JI IL LL1" />
    </vehicle>
    <vehicle id="3.58" depart="345">
        <route edges="B1B BD DG GJ JI IL LL1" />
    </vehicle>
    <vehicle id="4.87" depart="347">
        <route edges="B1B BE EH HK KM MM1" />
    </vehicle>
    <vehicle id="1.76" depart="348">
        <route edges="A1A AC CG GJ JI IL LL1" />
    </vehicle>
    <vehicle id="4.88" depart="349">
        <route edges="B1B BE EH HK KM MM1" />
    </vehicle>
    <vehicle id="2.38" depart="351">
        <route edges="A1A AC CD DH HK KM MM1" />
    </vehicle>
    <vehicle id="3.59" depart="352">
        <route edges="B1B BD DG GJ JI IL LL1" />
    </vehicle>
    <vehicle id="1.77" depart="354">
        <route edges="A1A AC CG GJ JI IL LL1" />
    </vehicle>
    <vehicle id="4.89" depart="354">
        <route edges="B1B BE EH HK KM MM1" />
    </vehicle>
    <vehicle id="1.78" depart="357">
        <route edges="A1A AC CG GJ JI IL LL1" />
    </vehicle>
    <vehicle id="3.60" depart="357">
        <route edges="B1B BD DG GJ JI IL LL1" />
    </vehicle>
    <vehicle id="4.90" depart="359">
        <route edges="B1B BE EH HK KM MM1" />
    </vehicle>
    <vehicle id="2.39" depart="360">
        <route edges="A1A AC CD DH HK KM MM1" />
    </vehicle>
    <vehicle id="4.91" depart="361">
        <route edges="B1B BE EH HK KM MM1" />
    </vehicle>
    <vehicle id="1.79" depart="363">
        <route edges="A1A AC CG GJ JI IL LL1" />
    </vehicle>
    <vehicle id="3.61" depart="364">
        <route edges="B1B BD DG GJ JI IL LL1" />
    </vehicle>
    <vehicle id="1.80" depart="366">
        <route edges="A1A AC CG GJ JI IL LL1" />
    </vehicle>
    <vehicle id="4.92" depart="366">
        <route edges="B1B BE EH HK KM MM1" />
    </vehicle>
    <vehicle id="3.62" depart="368">
        <route edges="B1B BD DG GJ JI IL LL1" />
    </vehicle>
    <vehicle id="2.40" depart="370">
        <route edges="A1A AC CD DH HK KM MM1" />
    </vehicle>
    <vehicle id="4.93" depart="370">
        <route edges="B1B BE EH HK KM MM1" />
    </vehicle>
    <vehicle id="4.94" depart="372">
        <route edges="B1B BE EH HK KM MM1" />
    </vehicle>
    <vehicle id="1.81" depart="373">
        <route edges="A1A AC CG GJ JI IL LL1" />
    </vehicle>
    <vehicle id="3.63" depart="375">
        <route edges="B1B BD DG GJ JI IL LL1" />
    </vehicle>
    <vehicle id="1.82" depart="376">
        <route edges="A1A AC CG GJ JI IL LL1" />
    </vehicle>
    <vehicle id="4.95" depart="378">
        <route edges="B1B BE EH HK KM MM1" />
    </vehicle>
    <vehicle id="2.41" depart="379">
        <route edges="A1A AC CD DH HK KM MM1" />
    </vehicle>
    <vehicle id="3.64" depart="380">
        <route edges="B1B BD DG GJ JI IL LL1" />
    </vehicle>
    <vehicle id="1.83" depart="382">
        <route edges="A1A AC CG GJ JI IL LL1" />
    </vehicle>
    <vehicle id="4.96" depart="382">
        <route edges="B1B BE EH HK KM MM1" />
    </vehicle>
    <vehicle id="4.97" depart="384">
        <route edges="B1B BE EH HK KM MM1" />
    </vehicle>
    <vehicle id="1.84" depart="385">
        <route edges="A1A AC CG GJ JI IL LL1" />
    </vehicle>
    <vehicle id="3.65" depart="387">
        <route edges="B1B BD DG GJ JI IL LL1" />
    </vehicle>
    <vehicle id="2.42" depart="388">
        <route edges="A1A AC CD DH HK KM MM1" />
    </vehicle>
    <vehicle id="4.98" depart="389">
        <route edges="B1B BE EH HK KM MM1" />
    </vehicle>
    <vehicle id="1.85" depart="391">
        <route edges="A1A AC CG GJ JI IL LL1" />
    </vehicle>
    <vehicle id="3.66" depart="392">
        <route edges="B1B BD DG GJ JI IL LL1" />
    </vehicle>
    <vehicle id="1.86" depart="394">
        <route edges="A1A AC CG GJ JI IL LL1" />
    </vehicle>
    <vehicle id="4.99" depart="395">
        <route edges="B1B BE EH HK KM MM1" />
    </vehicle>
    <vehicle id="2.43" depart="397">
        <route edges="A1A AC CD DH HK KM MM1" />
    </vehicle>
    <vehicle id="4.100" depart="397">
        <route edges="B1B BE EH HK KM MM1" />
    </vehicle>
    <vehicle id="1.87" depart="400">
        <route edges="A1A AC CG GJ JI IL LL1" />
    </vehicle>
    <vehicle id="3.67" depart="400">
        <route edges="B1B BD DG GJ JI IL LL1" />
    </vehicle>