<?xml version="1.0" encoding="UTF-8"?>

<!-- generated on Fri Oct 25 15:35:41 2013 by SUMO netconvert Version svn
<?xml version="1.0" encoding="UTF-8"?>

<configuration xmlns:xsi="http://www.w3.org/2001/XMLSchema-instance" xsi:noNamespaceSchemaLocation="http://sumo-sim.org/xsd/netconvertConfiguration.xsd">

    <input>
        <node-files value="ortuzar.nod.xml"/>
        <edge-files value="ortuzar.edg.xml"/>
        <connection-files value="ortuzar.con.xml"/>
        <type-files value="ortuzar.typ.xml"/>
    </input>

    <output>
        <output-file value="ortuzar.net.xml"/>
    </output>

    <processing>
        <no-turnarounds value="true"/>
    </processing>

</configuration>
-->

<net version="0.13" xmlns:xsi="http://www.w3.org/2001/XMLSchema-instance" xsi:noNamespaceSchemaLocation="http://sumo-sim.org/xsd/net_file.xsd">

    <location netOffset="1.00,0.00" convBoundary="0.00,0.00,18002.00,10000.00" origBoundary="-1.00,0.00,18001.00,10000.00" projParameter="!"/>

    <edge id=":A_0" function="internal">
        <lane id=":A_0_0" index="0" speed="14.29" length="12.62" shape="10.35,10001.65 5.54,10000.96 2.10,9998.90 0.17,9995.68"/>
    </edge>
    <edge id=":A_9" function="internal">
        <lane id=":A_9_0" index="0" speed="14.29" length="5.11" shape="0.17,9995.68 0.04,9995.46 -0.65,9990.65"/>
    </edge>
    <edge id=":A_1" function="internal">
        <lane id=":A_1_0" index="0" speed="12.27" length="16.51" shape="10.35,10001.65 5.10,10001.06 2.71,9999.29 3.15,9996.35 6.44,9992.22"/>
    </edge>
    <edge id=":A_2" function="internal">
        <lane id=":A_2_0" index="0" speed="12.27" length="6.64" shape="8.78,9994.56 7.45,9996.22 7.27,9997.40 8.24,9998.11 10.35,9998.35"/>
    </edge>
    <edge id=":A_3" function="internal">
        <lane id=":A_3_0" index="0" speed="9.88" length="16.51" shape="8.78,9994.56 4.65,9997.85 1.71,9998.29 -0.06,9995.90 -0.65,9990.65"/>
    </edge>
    <edge id=":A_4" function="internal">
        <lane id=":A_4_0" index="0" speed="9.88" length="6.64" shape="2.65,9990.65 2.89,9992.76 3.60,9993.73 4.78,9993.55 6.44,9992.22"/>
    </edge>
    <edge id=":A_5" function="internal">
        <lane id=":A_5_0" index="0" speed="14.29" length="12.41" shape="2.65,9990.65 3.13,9994.02 4.57,9996.43 6.98,9997.87 10.35,9998.35"/>
    </edge>
    <edge id=":A_6" function="internal">
        <lane id=":A_6_0" index="0" speed="11.90" length="7.80" shape="0.60,9998.35 -0.65,9990.65"/>
    </edge>
    <edge id=":A_7" function="internal">
        <lane id=":A_7_0" index="0" speed="9.88" length="8.46" shape="0.60,9998.35 6.44,9992.22"/>
    </edge>
    <edge id=":A_8" function="internal">
        <lane id=":A_8_0" index="0" speed="14.29" length="9.75" shape="0.60,9998.35 10.35,9998.35"/>
    </edge>
    <edge id=":B_0" function="internal">
        <lane id=":B_0_0" index="0" speed="11.30" length="6.46" shape="-0.65,5004.75 -0.21,5001.93 1.12,4998.90 1.29,4998.66"/>
    </edge>
    <edge id=":B_9" function="internal">
        <lane id=":B_9_0" index="0" speed="11.30" length="8.26" shape="1.29,4998.66 3.34,4995.67 6.44,4992.22"/>
    </edge>
    <edge id=":B_1" function="internal">
        <lane id=":B_1_0" index="0" speed="9.73" length="5.76" shape="-0.65,5004.75 0.04,5001.95 2.10,4999.95"/>
    </edge>
    <edge id=":B_10" function="internal">
        <lane id=":B_10_0" index="0" speed="9.73" length="8.47" shape="2.10,4999.95 5.54,4998.75 10.35,4998.35"/>
    </edge>
    <edge id=":B_2" function="internal">
        <lane id=":B_2_0" index="0" speed="9.73" length="9.02" shape="10.35,5001.65 6.98,5001.84 4.57,5002.42 3.13,5003.39 2.65,5004.75"/>
    </edge>
    <edge id=":B_3" function="internal">
        <lane id=":B_3_0" index="0" speed="9.14" length="16.51" shape="10.35,5001.65 5.10,5001.06 2.71,4999.29 3.15,4996.35 6.44,4992.22"/>
    </edge>
    <edge id=":B_4" function="internal">
        <lane id=":B_4_0" index="0" speed="9.14" length="6.64" shape="8.78,4994.56 7.45,4996.22 7.27,4997.40 8.24,4998.11 10.35,4998.35"/>
    </edge>
    <edge id=":B_5" function="internal">
        <lane id=":B_5_0" index="0" speed="11.30" length="12.14" shape="8.78,4994.56 6.10,4997.49 4.18,5000.17 3.03,5002.59 2.65,5004.75"/>
    </edge>
    <edge id=":B_6" function="internal">
        <lane id=":B_6_0" index="0" speed="11.30" length="8.46" shape="0.60,4998.35 6.44,4992.22"/>
    </edge>
    <edge id=":B_7" function="internal">
        <lane id=":B_7_0" index="0" speed="9.73" length="9.75" shape="0.60,4998.35 10.35,4998.35"/>
    </edge>
    <edge id=":B_8" function="internal">
        <lane id=":B_8_0" index="0" speed="11.90" length="0.76" shape="0.60,4998.35 1.29,4998.66"/>
    </edge>
    <edge id=":B_11" function="internal">
        <lane id=":B_11_0" index="0" speed="11.90" length="6.43" shape="1.29,4998.66 1.50,4998.75 2.14,4999.95 2.52,5001.95 2.65,5004.75"/>
    </edge>
    <edge id=":C_0" function="internal">
        <lane id=":C_0_0" index="0" speed="12.12" length="14.10" shape="5010.35,10001.65 5006.74,10001.65 5003.30,10001.65 4999.86,10001.65 4996.25,10001.65"/>
    </edge>
    <edge id=":C_1" function="internal">
        <lane id=":C_1_0" index="0" speed="9.73" length="9.51" shape="5010.35,10001.65 5005.54,10000.96 5002.10,9998.90 5001.77,9998.35"/>
    </edge>
    <edge id=":C_12" function="internal">
        <lane id=":C_12_0" index="0" speed="9.73" length="8.22" shape="5001.77,9998.35 5000.04,9995.46 4999.35,9990.65"/>
    </edge>
    <edge id=":C_2" function="internal">
        <lane id=":C_2_0" index="0" speed="10.33" length="9.21" shape="5010.35,10001.65 5005.10,10001.06 5002.71,9999.29 5002.85,9998.35"/>
    </edge>
    <edge id=":C_13" function="internal">
        <lane id=":C_13_0" index="0" speed="10.33" length="7.30" shape="5002.85,9998.35 5003.15,9996.35 5006.44,9992.22"/>
    </edge>
    <edge id=":C_3" function="internal">
        <lane id=":C_3_0" index="0" speed="10.33" length="6.64" shape="5008.78,9994.56 5007.45,9996.22 5007.27,9997.40 5008.24,9998.11 5010.35,9998.35"/>
    </edge>
    <edge id=":C_4" function="internal">
        <lane id=":C_4_0" index="0" speed="14.88" length="14.72" shape="5008.78,9994.56 5005.33,9997.66 5002.10,9999.88 4999.07,10001.21 4996.25,10001.65"/>
    </edge>
    <edge id=":C_5" function="internal">
        <lane id=":C_5_0" index="0" speed="12.50" length="16.51" shape="5008.78,9994.56 5004.65,9997.85 5001.71,9998.29 4999.94,9995.90 4999.35,9990.65"/>
    </edge>
    <edge id=":C_6" function="internal">
        <lane id=":C_6_0" index="0" speed="12.50" length="6.64" shape="5002.65,9990.65 5002.89,9992.76 5003.60,9993.73 5004.78,9993.55 5006.44,9992.22"/>
    </edge>
    <edge id=":C_7" function="internal">
        <lane id=":C_7_0" index="0" speed="9.73" length="12.41" shape="5002.65,9990.65 5003.13,9994.02 5004.57,9996.43 5006.98,9997.87 5010.35,9998.35"/>
    </edge>
    <edge id=":C_8" function="internal">
        <lane id=":C_8_0" index="0" speed="14.29" length="14.22" shape="5002.65,9990.65 5002.25,9995.46 5001.05,9998.90 4999.05,10000.96 4996.25,10001.65"/>
    </edge>
    <edge id=":C_9" function="internal">
        <lane id=":C_9_0" index="0" speed="14.29" length="9.02" shape="4996.25,9998.35 4997.61,9997.87 4998.58,9996.43 4999.16,9994.02 4999.35,9990.65"/>
    </edge>
    <edge id=":C_10" function="internal">
        <lane id=":C_10_0" index="0" speed="14.88" length="12.14" shape="4996.25,9998.35 4998.41,9997.97 5000.83,9996.82 5003.51,9994.90 5006.44,9992.22"/>
    </edge>
    <edge id=":C_11" function="internal">
        <lane id=":C_11_0" index="0" speed="12.12" length="14.10" shape="4996.25,9998.35 4999.86,9998.35 5003.30,9998.35 5006.74,9998.35 5010.35,9998.35"/>
    </edge>
    <edge id=":D_0" function="internal">
        <lane id=":D_0_0" index="0" speed="9.88" length="6.64" shape="4999.35,5009.35 4999.11,5007.24 4998.40,5006.27 4997.22,5006.45 4995.56,5007.78"/>
    </edge>
    <edge id=":D_1" function="internal">
        <lane id=":D_1_0" index="0" speed="9.73" length="12.41" shape="4999.35,5009.35 4998.87,5005.98 4997.43,5003.57 4995.02,5002.13 4991.65,5001.65"/>
    </edge>
    <edge id=":D_2" function="internal">
        <lane id=":D_2_0" index="0" speed="11.90" length="18.69" shape="4999.35,5009.35 4999.35,5005.02 4999.35,5000.00 4999.35,4994.98 4999.35,4990.65"/>
    </edge>
    <edge id=":D_3" function="internal">
        <lane id=":D_3_0" index="0" speed="12.50" length="19.02" shape="4999.35,5009.35 4999.79,5004.51 5001.12,5000.05 5003.34,4995.95 5006.44,4992.22"/>
    </edge>
    <edge id=":D_4" function="internal">
        <lane id=":D_4_0" index="0" speed="11.90" length="17.73" shape="4999.35,5009.35 5000.04,5004.54 5002.10,5001.10 5005.54,4999.04 5010.35,4998.35"/>
    </edge>
    <edge id=":D_5" function="internal">
        <lane id=":D_5_0" index="0" speed="11.90" length="12.41" shape="5010.35,5001.65 5006.98,5002.13 5004.57,5003.57 5003.13,5005.98 5002.65,5009.35"/>
    </edge>
    <edge id=":D_6" function="internal">
        <lane id=":D_6_0" index="0" speed="9.88" length="16.43" shape="5010.35,5001.65 5006.17,5002.03 5002.32,5003.18 4998.78,5005.10 4995.56,5007.78"/>
    </edge>
    <edge id=":D_7" function="internal">
        <lane id=":D_7_0" index="0" speed="9.73" length="18.69" shape="5010.35,5001.65 5006.02,5001.65 5001.00,5001.65 4995.98,5001.65 4991.65,5001.65"/>
    </edge>
    <edge id=":D_8" function="internal">
        <lane id=":D_8_0" index="0" speed="11.90" length="17.73" shape="5010.35,5001.65 5005.54,5000.96 5002.10,4998.90 5000.04,4995.46 4999.35,4990.65"/>
    </edge>
    <edge id=":D_9" function="internal">
        <lane id=":D_9_0" index="0" speed="12.50" length="16.51" shape="5010.35,5001.65 5005.10,5001.06 5002.71,4999.29 5003.15,4996.35 5006.44,4992.22"/>
    </edge>
    <edge id=":D_10" function="internal">
        <lane id=":D_10_0" index="0" speed="12.50" length="6.64" shape="5008.78,4994.56 5007.45,4996.22 5007.27,4997.40 5008.24,4998.11 5010.35,4998.35"/>
    </edge>
    <edge id=":D_11" function="internal">
        <lane id=":D_11_0" index="0" speed="12.50" length="16.43" shape="5008.78,4994.56 5006.10,4997.78 5004.18,5001.32 5003.03,5005.17 5002.65,5009.35"/>
    </edge>
    <edge id=":D_12" function="internal">
        <lane id=":D_12_0" index="0" speed="10.47" length="18.69" shape="5008.78,4994.56 5005.72,4997.62 5002.17,5001.17 4998.62,5004.72 4995.56,5007.78"/>
    </edge>
    <edge id=":D_13" function="internal">
        <lane id=":D_13_0" index="0" speed="10.33" length="12.72" shape="5008.78,4994.56 5005.05,4997.66 5000.95,4999.88 4997.87,5000.79"/>
    </edge>
    <edge id=":D_30" function="internal">
        <lane id=":D_30_0" index="0" speed="10.33" length="6.30" shape="4997.87,5000.79 4996.49,5001.21 4991.65,5001.65"/>
    </edge>
    <edge id=":D_14" function="internal">
        <lane id=":D_14_0" index="0" speed="12.50" length="9.21" shape="5008.78,4994.56 5004.65,4997.85 5001.71,4998.29 5001.14,4997.53"/>
    </edge>
    <edge id=":D_31" function="internal">
        <lane id=":D_31_0" index="0" speed="12.50" length="7.30" shape="5001.14,4997.53 4999.94,4995.90 4999.35,4990.65"/>
    </edge>
    <edge id=":D_15" function="internal">
        <lane id=":D_15_0" index="0" speed="12.50" length="6.64" shape="5002.65,4990.65 5002.89,4992.76 5003.60,4993.73 5004.78,4993.55 5006.44,4992.22"/>
    </edge>
    <edge id=":D_16" function="internal">
        <lane id=":D_16_0" index="0" speed="11.90" length="12.41" shape="5002.65,4990.65 5003.13,4994.02 5004.57,4996.43 5006.98,4997.87 5010.35,4998.35"/>
    </edge>
    <edge id=":D_17" function="internal">
        <lane id=":D_17_0" index="0" speed="11.90" length="18.69" shape="5002.65,4990.65 5002.65,4994.98 5002.65,5000.00 5002.65,5005.02 5002.65,5009.35"/>
    </edge>
    <edge id=":D_18" function="internal">
        <lane id=":D_18_0" index="0" speed="9.88" length="19.02" shape="5002.65,4990.65 5002.21,4995.49 5000.88,4999.95 4998.66,5004.05 4995.56,5007.78"/>
    </edge>
    <edge id=":D_19" function="internal">
        <lane id=":D_19_0" index="0" speed="9.73" length="17.73" shape="5002.65,4990.65 5001.96,4995.46 4999.90,4998.90 4996.46,5000.96 4991.65,5001.65"/>
    </edge>
    <edge id=":D_20" function="internal">
        <lane id=":D_20_0" index="0" speed="9.73" length="12.41" shape="4991.65,4998.35 4995.02,4997.87 4997.43,4996.43 4998.87,4994.02 4999.35,4990.65"/>
    </edge>
    <edge id=":D_21" function="internal">
        <lane id=":D_21_0" index="0" speed="10.33" length="16.43" shape="4991.65,4998.35 4995.83,4997.97 4999.68,4996.82 5003.22,4994.90 5006.44,4992.22"/>
    </edge>
    <edge id=":D_22" function="internal">
        <lane id=":D_22_0" index="0" speed="9.73" length="18.69" shape="4991.65,4998.35 4995.98,4998.35 5001.00,4998.35 5006.02,4998.35 5010.35,4998.35"/>
    </edge>
    <edge id=":D_23" function="internal">
        <lane id=":D_23_0" index="0" speed="9.73" length="17.73" shape="4991.65,4998.35 4996.46,4999.04 4999.90,5001.10 5001.96,5004.54 5002.65,5009.35"/>
    </edge>
    <edge id=":D_24" function="internal">
        <lane id=":D_24_0" index="0" speed="7.71" length="16.51" shape="4991.65,4998.35 4996.90,4998.94 4999.29,5000.71 4998.85,5003.65 4995.56,5007.78"/>
    </edge>
    <edge id=":D_25" function="internal">
        <lane id=":D_25_0" index="0" speed="7.71" length="6.64" shape="4993.22,5005.44 4994.55,5003.78 4994.73,5002.60 4993.76,5001.89 4991.65,5001.65"/>
    </edge>
    <edge id=":D_26" function="internal">
        <lane id=":D_26_0" index="0" speed="9.88" length="16.43" shape="4993.22,5005.44 4995.90,5002.22 4997.82,4998.68 4998.97,4994.83 4999.35,4990.65"/>
    </edge>
    <edge id=":D_27" function="internal">
        <lane id=":D_27_0" index="0" speed="10.47" length="18.69" shape="4993.22,5005.44 4996.28,5002.38 4999.83,4998.83 5003.38,4995.28 5006.44,4992.22"/>
    </edge>
    <edge id=":D_28" function="internal">
        <lane id=":D_28_0" index="0" speed="9.88" length="12.72" shape="4993.22,5005.44 4996.95,5002.34 5001.05,5000.12 5004.13,4999.21"/>
    </edge>
    <edge id=":D_32" function="internal">
        <lane id=":D_32_0" index="0" speed="9.88" length="6.30" shape="5004.13,4999.21 5005.51,4998.79 5010.35,4998.35"/>
    </edge>
    <edge id=":D_29" function="internal">
        <lane id=":D_29_0" index="0" speed="9.88" length="9.21" shape="4993.22,5005.44 4997.35,5002.15 5000.29,5001.71 5000.86,5002.47"/>
    </edge>
    <edge id=":D_33" function="internal">
        <lane id=":D_33_0" index="0" speed="9.88" length="7.30" shape="5000.86,5002.47 5002.06,5004.10 5002.65,5009.35"/>
    </edge>
    <edge id=":E_0" function="internal">
        <lane id=":E_0_0" index="0" speed="11.30" length="6.64" shape="4999.35,9.35 4999.11,7.24 4998.40,6.27 4997.22,6.45 4995.56,7.78"/>
    </edge>
    <edge id=":E_1" function="internal">
        <lane id=":E_1_0" index="0" speed="11.90" length="5.31" shape="4999.35,9.35 4999.75,4.54 4999.91,4.08"/>
    </edge>
    <edge id=":E_6" function="internal">
        <lane id=":E_6_0" index="0" speed="11.90" length="8.92" shape="4999.91,4.08 5000.95,1.10 5002.95,-0.96 5005.75,-1.65"/>
    </edge>
    <edge id=":E_2" function="internal">
        <lane id=":E_2_0" index="0" speed="11.90" length="9.02" shape="5005.75,1.65 5004.39,2.13 5003.42,3.57 5002.84,5.98 5002.65,9.35"/>
    </edge>
    <edge id=":E_3" function="internal">
        <lane id=":E_3_0" index="0" speed="11.30" length="12.14" shape="5005.75,1.65 5003.59,2.03 5001.17,3.18 4998.49,5.10 4995.56,7.78"/>
    </edge>
    <edge id=":E_4" function="internal">
        <lane id=":E_4_0" index="0" speed="11.30" length="14.72" shape="4993.22,5.44 4996.67,2.34 4999.90,0.12 5002.93,-1.21 5005.75,-1.65"/>
    </edge>
    <edge id=":E_5" function="internal">
        <lane id=":E_5_0" index="0" speed="11.30" length="16.51" shape="4993.22,5.44 4997.35,2.15 5000.29,1.71 5002.06,4.10 5002.65,9.35"/>
    </edge>
    <edge id=":F_0" function="internal">
        <lane id=":F_0_0" index="0" speed="6.99" length="9.50" shape="10005.75,10001.65 9996.25,10001.65"/>
    </edge>
    <edge id=":F_1" function="internal">
        <lane id=":F_1_0" index="0" speed="7.83" length="10.32" shape="10005.75,10001.65 10002.95,10001.25 10000.95,10000.05 9999.75,9998.05 9999.35,9995.25"/>
    </edge>
    <edge id=":F_2" function="internal">
        <lane id=":F_2_0" index="0" speed="7.83" length="5.00" shape="10002.65,9995.25 10002.84,9996.61 10003.42,9997.57 10004.39,9998.16 10005.75,9998.35"/>
    </edge>
    <edge id=":F_3" function="internal">
        <lane id=":F_3_0" index="0" speed="8.41" length="10.32" shape="10002.65,9995.25 10002.25,9998.05 10001.05,10000.05 9999.05,10001.25 9996.25,10001.65"/>
    </edge>
    <edge id=":F_4" function="internal">
        <lane id=":F_4_0" index="0" speed="8.41" length="5.00" shape="9996.25,9998.35 9997.61,9998.16 9998.58,9997.58 9999.16,9996.61 9999.35,9995.25"/>
    </edge>
    <edge id=":F_5" function="internal">
        <lane id=":F_5_0" index="0" speed="6.99" length="9.50" shape="9996.25,9998.35 10005.75,9998.35"/>
    </edge>
    <edge id=":G_0" function="internal">
        <lane id=":G_0_0" index="0" speed="11.18" length="6.64" shape="9999.35,5009.35 9999.11,5007.24 9998.40,5006.27 9997.22,5006.45 9995.56,5007.78"/>
    </edge>
    <edge id=":G_1" function="internal">
        <lane id=":G_1_0" index="0" speed="10.58" length="12.41" shape="9999.35,5009.35 9998.87,5005.98 9997.43,5003.57 9995.02,5002.13 9991.65,5001.65"/>
    </edge>
    <edge id=":G_2" function="internal">
        <lane id=":G_2_0" index="0" speed="9.26" length="18.69" shape="9999.35,5009.35 9999.35,5005.02 9999.35,5000.00 9999.35,4994.98 9999.35,4990.65"/>
    </edge>
    <edge id=":G_3" function="internal">
        <lane id=":G_3_0" index="0" speed="9.16" length="19.02" shape="9999.35,5009.35 9999.79,5004.51 10001.12,5000.05 10003.34,4995.95 10006.44,4992.22"/>
    </edge>
    <edge id=":G_4" function="internal">
        <lane id=":G_4_0" index="0" speed="18.52" length="17.73" shape="9999.35,5009.35 10000.04,5004.54 10002.10,5001.10 10005.54,4999.04 10010.35,4998.35"/>
    </edge>
    <edge id=":G_5" function="internal">
        <lane id=":G_5_0" index="0" speed="18.52" length="12.41" shape="10010.35,5001.65 10006.98,5002.13 10004.57,5003.57 10003.13,5005.98 10002.65,5009.35"/>
    </edge>
    <edge id=":G_6" function="internal">
        <lane id=":G_6_0" index="0" speed="20.44" length="16.43" shape="10010.35,5001.65 10006.17,5002.03 10002.32,5003.18 9998.78,5005.10 9995.56,5007.78"/>
    </edge>
    <edge id=":G_7" function="internal">
        <lane id=":G_7_0" index="0" speed="19.84" length="18.69" shape="10010.35,5001.65 10006.02,5001.65 10001.00,5001.65 9995.98,5001.65 9991.65,5001.65"/>
    </edge>
    <edge id=":G_8" function="internal">
        <lane id=":G_8_0" index="0" speed="18.52" length="9.51" shape="10010.35,5001.65 10005.54,5000.96 10002.10,4998.90 10001.77,4998.35"/>
    </edge>
    <edge id=":G_30" function="internal">
        <lane id=":G_30_0" index="0" speed="18.52" length="8.22" shape="10001.77,4998.35 10000.04,4995.46 9999.35,4990.65"/>
    </edge>
    <edge id=":G_9" function="internal">
        <lane id=":G_9_0" index="0" speed="18.42" length="9.21" shape="10010.35,5001.65 10005.10,5001.06 10002.71,4999.29 10002.85,4998.35"/>
    </edge>
    <edge id=":G_31" function="internal">
        <lane id=":G_31_0" index="0" speed="18.42" length="7.30" shape="10002.85,4998.35 10003.15,4996.35 10006.44,4992.22"/>
    </edge>
    <edge id=":G_10" function="internal">
        <lane id=":G_10_0" index="0" speed="18.42" length="6.64" shape="10008.78,4994.56 10007.45,4996.22 10007.27,4997.40 10008.24,4998.11 10010.35,4998.35"/>
    </edge>
    <edge id=":G_11" function="internal">
        <lane id=":G_11_0" index="0" speed="9.16" length="16.43" shape="10008.78,4994.56 10006.10,4997.78 10004.18,5001.32 10003.03,5005.17 10002.65,5009.35"/>
    </edge>
    <edge id=":G_12" function="internal">
        <lane id=":G_12_0" index="0" speed="11.07" length="18.69" shape="10008.78,4994.56 10005.72,4997.62 10002.17,5001.17 9998.62,5004.72 9995.56,5007.78"/>
    </edge>
    <edge id=":G_13" function="internal">
        <lane id=":G_13_0" index="0" speed="10.48" length="19.02" shape="10008.78,4994.56 10005.05,4997.66 10000.95,4999.88 9996.49,5001.21 9991.65,5001.65"/>
    </edge>
    <edge id=":G_14" function="internal">
        <lane id=":G_14_0" index="0" speed="9.16" length="16.51" shape="10008.78,4994.56 10004.65,4997.85 10001.71,4998.29 9999.94,4995.90 9999.35,4990.65"/>
    </edge>
    <edge id=":G_15" function="internal">
        <lane id=":G_15_0" index="0" speed="9.16" length="6.64" shape="10002.65,4990.65 10002.89,4992.76 10003.60,4993.73 10004.78,4993.55 10006.44,4992.22"/>
    </edge>
    <edge id=":G_16" function="internal">
        <lane id=":G_16_0" index="0" speed="18.52" length="12.41" shape="10002.65,4990.65 10003.13,4994.02 10004.57,4996.43 10006.98,4997.87 10010.35,4998.35"/>
    </edge>
    <edge id=":G_17" function="internal">
        <lane id=":G_17_0" index="0" speed="9.26" length="18.69" shape="10002.65,4990.65 10002.65,4994.98 10002.65,5000.00 10002.65,5005.02 10002.65,5009.35"/>
    </edge>
    <edge id=":G_18" function="internal">
        <lane id=":G_18_0" index="0" speed="11.18" length="19.02" shape="10002.65,4990.65 10002.21,4995.49 10000.88,4999.95 9998.66,5004.05 9995.56,5007.78"/>
    </edge>
    <edge id=":G_19" function="internal">
        <lane id=":G_19_0" index="0" speed="10.58" length="17.73" shape="10002.65,4990.65 10001.96,4995.46 9999.90,4998.90 9996.46,5000.96 9991.65,5001.65"/>
    </edge>
    <edge id=":G_20" function="internal">
        <lane id=":G_20_0" index="0" speed="10.58" length="12.41" shape="9991.65,4998.35 9995.02,4997.87 9997.43,4996.43 9998.87,4994.02 9999.35,4990.65"/>
    </edge>
    <edge id=":G_21" function="internal">
        <lane id=":G_21_0" index="0" speed="10.48" length="16.43" shape="9991.65,4998.35 9995.83,4997.97 9999.68,4996.82 10003.22,4994.90 10006.44,4992.22"/>
    </edge>
    <edge id=":G_22" function="internal">
        <lane id=":G_22_0" index="0" speed="19.84" length="18.69" shape="9991.65,4998.35 9995.98,4998.35 10001.00,4998.35 10006.02,4998.35 10010.35,4998.35"/>
    </edge>
    <edge id=":G_23" function="internal">
        <lane id=":G_23_0" index="0" speed="10.58" length="9.51" shape="9991.65,4998.35 9996.46,4999.04 9999.90,5001.10 10000.23,5001.65"/>
    </edge>
    <edge id=":G_32" function="internal">
        <lane id=":G_32_0" index="0" speed="10.58" length="8.22" shape="10000.23,5001.65 10001.96,5004.54 10002.65,5009.35"/>
    </edge>
    <edge id=":G_24" function="internal">
        <lane id=":G_24_0" index="0" speed="12.50" length="9.21" shape="9991.65,4998.35 9996.90,4998.94 9999.29,5000.71 9999.15,5001.65"/>
    </edge>
    <edge id=":G_33" function="internal">
        <lane id=":G_33_0" index="0" speed="12.50" length="7.30" shape="9999.15,5001.65 9998.85,5003.65 9995.56,5007.78"/>
    </edge>
    <edge id=":G_25" function="internal">
        <lane id=":G_25_0" index="0" speed="12.50" length="6.64" shape="9993.22,5005.44 9994.55,5003.78 9994.73,5002.60 9993.76,5001.89 9991.65,5001.65"/>
    </edge>
    <edge id=":G_26" function="internal">
        <lane id=":G_26_0" index="0" speed="11.18" length="16.43" shape="9993.22,5005.44 9995.90,5002.22 9997.82,4998.68 9998.97,4994.83 9999.35,4990.65"/>
    </edge>
    <edge id=":G_27" function="internal">
        <lane id=":G_27_0" index="0" speed="11.07" length="18.69" shape="9993.22,5005.44 9996.28,5002.38 9999.83,4998.83 10003.38,4995.28 10006.44,4992.22"/>
    </edge>
    <edge id=":G_28" function="internal">
        <lane id=":G_28_0" index="0" speed="20.44" length="19.02" shape="9993.22,5005.44 9996.95,5002.34 10001.05,5000.12 10005.51,4998.79 10010.35,4998.35"/>
    </edge>
    <edge id=":G_29" function="internal">
        <lane id=":G_29_0" index="0" speed="11.18" length="16.51" shape="9993.22,5005.44 9997.35,5002.15 10000.29,5001.71 10002.06,5004.10 10002.65,5009.35"/>
    </edge>
    <edge id=":H_0" function="internal">
        <lane id=":H_0_0" index="0" speed="11.18" length="6.64" shape="9999.35,9.35 9999.11,7.24 9998.40,6.27 9997.22,6.45 9995.56,7.78"/>
    </edge>
    <edge id=":H_1" function="internal">
        <lane id=":H_1_0" index="0" speed="10.58" length="12.41" shape="9999.35,9.35 9998.87,5.98 9997.43,3.57 9995.02,2.13 9991.65,1.65"/>
    </edge>
    <edge id=":H_2" function="internal">
        <lane id=":H_2_0" index="0" speed="18.52" length="14.22" shape="9999.35,9.35 9999.75,4.54 10000.95,1.10 10002.95,-0.96 10005.75,-1.65"/>
    </edge>
    <edge id=":H_3" function="internal">
        <lane id=":H_3_0" index="0" speed="18.52" length="9.02" shape="10005.75,1.65 10004.39,2.13 10003.42,3.57 10002.84,5.98 10002.65,9.35"/>
    </edge>
    <edge id=":H_4" function="internal">
        <lane id=":H_4_0" index="0" speed="20.44" length="12.14" shape="10005.75,1.65 10003.59,2.03 10001.17,3.18 9998.49,5.10 9995.56,7.78"/>
    </edge>
    <edge id=":H_5" function="internal">
        <lane id=":H_5_0" index="0" speed="19.84" length="14.10" shape="10005.75,1.65 10002.14,1.65 9998.70,1.65 9995.26,1.65 9991.65,1.65"/>
    </edge>
    <edge id=":H_6" function="internal">
        <lane id=":H_6_0" index="0" speed="19.84" length="14.10" shape="9991.65,-1.65 9995.26,-1.65 9998.70,-1.65 10002.14,-1.65 10005.75,-1.65"/>
    </edge>
    <edge id=":H_7" function="internal">
        <lane id=":H_7_0" index="0" speed="10.58" length="9.51" shape="9991.65,-1.65 9996.46,-0.96 9999.90,1.10 10000.23,1.65"/>
    </edge>
    <edge id=":H_12" function="internal">
        <lane id=":H_12_0" index="0" speed="10.58" length="8.22" shape="10000.23,1.65 10001.96,4.54 10002.65,9.35"/>
    </edge>
    <edge id=":H_8" function="internal">
        <lane id=":H_8_0" index="0" speed="12.50" length="9.21" shape="9991.65,-1.65 9996.90,-1.06 9999.29,0.71 9999.15,1.65"/>
    </edge>
    <edge id=":H_13" function="internal">
        <lane id=":H_13_0" index="0" speed="12.50" length="7.30" shape="9999.15,1.65 9998.85,3.65 9995.56,7.78"/>
    </edge>
    <edge id=":H_9" function="internal">
        <lane id=":H_9_0" index="0" speed="12.50" length="6.64" shape="9993.22,5.44 9994.55,3.78 9994.73,2.60 9993.76,1.89 9991.65,1.65"/>
    </edge>
    <edge id=":H_10" function="internal">
        <lane id=":H_10_0" index="0" speed="20.44" length="14.72" shape="9993.22,5.44 9996.67,2.34 9999.90,0.12 10002.93,-1.21 10005.75,-1.65"/>
    </edge>
    <edge id=":H_11" function="internal">
        <lane id=":H_11_0" index="0" speed="11.18" length="16.51" shape="9993.22,5.44 9997.35,2.15 10000.29,1.71 10002.06,4.10 10002.65,9.35"/>
    </edge>
    <edge id=":I_0" function="internal">
        <lane id=":I_0_0" index="0" speed="15.71" length="9.50" shape="15005.75,10001.65 14996.25,10001.65"/>
    </edge>
    <edge id=":I_1" function="internal">
        <lane id=":I_1_0" index="0" speed="17.13" length="7.14" shape="15005.75,10001.65 15002.95,10001.25 15000.95,10000.05 14999.93,9998.35"/>
    </edge>
    <edge id=":I_6" function="internal">
        <lane id=":I_6_0" index="0" speed="17.13" length="3.18" shape="14999.93,9998.35 14999.75,9998.05 14999.35,9995.25"/>
    </edge>
    <edge id=":I_2" function="internal">
        <lane id=":I_2_0" index="0" speed="17.13" length="5.00" shape="15002.65,9995.25 15002.84,9996.61 15003.42,9997.58 15004.39,9998.16 15005.75,9998.35"/>
    </edge>
    <edge id=":I_3" function="internal">
        <lane id=":I_3_0" index="0" speed="7.83" length="10.32" shape="15002.65,9995.25 15002.25,9998.05 15001.05,10000.05 14999.05,10001.25 14996.25,10001.65"/>
    </edge>
    <edge id=":I_4" function="internal">
        <lane id=":I_4_0" index="0" speed="7.83" length="5.00" shape="14996.25,9998.35 14997.61,9998.16 14998.57,9997.58 14999.16,9996.61 14999.35,9995.25"/>
    </edge>
    <edge id=":I_5" function="internal">
        <lane id=":I_5_0" index="0" speed="15.71" length="9.50" shape="14996.25,9998.35 15005.75,9998.35"/>
    </edge>
    <edge id=":J_0" function="internal">
        <lane id=":J_0_0" index="0" speed="18.52" length="12.65" shape="14999.35,5013.23 14999.16,5008.17 14998.58,5004.55 14997.61,5002.37 14996.25,5001.65"/>
    </edge>
    <edge id=":J_1" function="internal">
        <lane id=":J_1_0" index="0" speed="9.26" length="26.47" shape="14999.35,5013.23 14999.35,5007.69 14999.35,5000.00 14999.35,4992.31 14999.35,4986.77"/>
    </edge>
    <edge id=":J_2" function="internal">
        <lane id=":J_2_0" index="0" speed="8.68" length="26.50" shape="14999.35,5013.23 15000.09,5007.75 15001.91,5000.25 15004.21,4992.88 15006.39,4987.80"/>
    </edge>
    <edge id=":J_3" function="internal">
        <lane id=":J_3_0" index="0" speed="8.68" length="21.69" shape="14999.35,5013.23 14999.97,5005.87 15001.82,5002.95 15004.90,5004.50 15009.22,5010.50"/>
    </edge>
    <edge id=":J_4" function="internal">
        <lane id=":J_4_0" index="0" speed="8.68" length="8.22" shape="15006.39,5012.20 15004.76,5009.92 15003.59,5009.34 15002.88,5010.44 15002.65,5013.23"/>
    </edge>
    <edge id=":J_5" function="internal">
        <lane id=":J_5_0" index="0" speed="17.94" length="15.02" shape="15006.39,5012.20 15003.39,5007.58 15000.69,5004.29 14998.31,5002.31 14996.25,5001.65"/>
    </edge>
    <edge id=":J_6" function="internal">
        <lane id=":J_6_0" index="0" speed="8.68" length="26.50" shape="15006.39,5012.20 15004.21,5007.12 15001.91,4999.75 15000.09,4992.25 14999.35,4986.77"/>
    </edge>
    <edge id=":J_7" function="internal">
        <lane id=":J_7_0" index="0" speed="8.10" length="25.71" shape="15006.39,5012.20 15003.65,5006.10 15002.73,5000.00 15003.65,4993.90 15006.39,4987.80"/>
    </edge>
    <edge id=":J_8" function="internal">
        <lane id=":J_8_0" index="0" speed="8.10" length="22.13" shape="15009.22,4989.50 15006.86,4994.75 15006.07,5000.00 15006.86,5005.25 15009.22,5010.50"/>
    </edge>