<?xml version="1.0" encoding="UTF-8"?>
<routes xmlns:xsi="http://www.w3.org/2001/XMLSchema-instance" xsi:noNamespaceSchemaLocation="http://sumo.dlr.de/xsd/routes_file.xsd">
	<vType id="bus" vClass="bus" color="green"/>
	<vType id="default_017" vClass="passenger" color="red"/>
    <vType id="random_017" vClass="passenger" color="red"/>
	<vType id="default_016" vClass="passenger" color="red"/>
    <vType id="random_016" vClass="passenger" color="red"/>
	<vType id="default_015" vClass="passenger" color="red"/>
    <vType id="random_015" vClass="passenger" color="red"/>
	<vType id="default_014" vClass="passenger" color="red"/>
    <vType id="random_014" vClass="passenger" color="red"/>
	<vType id="default_013" vClass="passenger" color="red"/>
    <vType id="random_013" vClass="passenger" color="red"/>
    <vType id="default_012" vClass="passenger" color="red"/>
    <vType id="random_012" vClass="passenger" color="red"/>
	<vType id="default_011" vClass="passenger" color="red"/>
    <vType id="random_011" vClass="passenger" color="red"/>
	<vType id="default_010" vClass="passenger" color="red"/>
    <vType id="random_010" vClass="passenger" color="red"/>
	<vType id="default_009" vClass="passenger" color="red"/>
    <vType id="random_009" vClass="passenger" color="red"/>
	<vType id="default_008" vClass="passenger" color="red"/>
    <vType id="random_008" vClass="passenger" color="red"/>
	<vType id="default_007" vClass="passenger" color="red"/>
    <vType id="random_007" vClass="passenger" color="red"/>
	<vType id="default_006" vClass="passenger" color="red"/>
    <vType id="random_006" vClass="passenger" color="red"/>
	<vType id="default_005" vClass="passenger" color="red"/>
    <vType id="random_005" vClass="passenger" color="red"/>
	<vType id="default_004" vClass="passenger" color="red"/>
    <vType id="random_004" vClass="passenger" color="red"/>
	<vType id="default_003" vClass="passenger" color="red"/>
    <vType id="random_003" vClass="passenger" color="red"/>
	<vType id="default_022" vClass="passenger" color="red"/>
    <vType id="random_022" vClass="passenger" color="red"/>
	<vType id="default_021" vClass="passenger" color="red"/>
    <vType id="random_021" vClass="passenger" color="red"/>
	<vType id="default_020" vClass="passenger" color="red"/>
    <vType id="random_020" vClass="passenger" color="red"/>
	<vType id="default_019" vClass="passenger" color="red"/>
    <vType id="random_019" vClass="passenger" color="red"/>
	<vType id="default_018" vClass="passenger" color="red"/>
    <vType id="random_018" vClass="passenger" color="red"/>
	<vType id="default_002" vClass="passenger" color="red"/>
    <vType id="random_002" vClass="passenger" color="red"/>
	<vType id="default_001" vClass="passenger" color="red"/>
    <vType id="random_001" vClass="passenger" color="red"/>
	<trip id="carIn105842:1" type="default_016" depart="57600.20" from="653473569#5" to="201956811#0"/>
	<trip id="carIn107084:1" type="default_016" depart="57600.30" from="124812856#0" to="-653473569#5"/>
	<trip id="carIn113711:1" type="default_016" depart="57600.30" from="-24693977#1" to="-266565295#5"/>
	<trip id="carIn79400:1" type="default_016" depart="57603.90" from="-24693977#1" to="-266565295#5"/>
	<trip id="randUni10474:1" type="random_016" depart="57604.80" from="124812856#0" to="-653473569#5"/>
	<trip id="carIn77943:1" type="default_016" depart="57605.50" from="124812856#0" to="-653473569#5"/>
	<trip id="carIn28951:1" type="default_016" depart="57605.80" from="10425609#0" to="-653473569#5"/>
	<trip id="carIn81046:1" type="default_016" depart="57608.50" from="124812856#0" to="-653473569#5"/>
	<trip id="carIn28488:1" type="default_016" depart="57610.20" from="653473569#5" to="201956820"/>
	<trip id="carIn89578:1" type="default_016" depart="57610.40" from="124812856#0" to="201956810"/>
	<trip id="carIn96537:1" type="default_016" depart="57611.20" from="124812856#0" to="202070434#2"/>
	<trip id="h15454c2:3" type="default_016" depart="57611.50" from="24608844" to="32978638#0"/>
	<trip id="carIn106322:1" type="default_016" depart="57611.80" from="653473569#5" to="201956811#0"/>
	<trip id="carIn77438:1" type="default_016" depart="57612.90" from="124812856#0" to="-653473569#5"/>
	<trip id="carIn115641:1" type="default_016" depart="57613.10" from="-24693977#1" to="-266565295#5"/>
	<trip id="carIn5482:1" type="default_016" depart="57613.40" from="653473569#5" to="201956811#0"/>
	<trip id="carIn26410:1" type="default_016" depart="57613.50" from="124812856#0" to="202070434#2"/>
	<trip id="carIn52610:1" type="default_016" depart="57614.90" from="-24693977#1" to="-266565295#5"/>
	<trip id="h19804c1:3" type="default_016" depart="57615.50" from="124812856#0" to="-653473569#5"/>
	<trip id="carIn36103:1" type="default_016" depart="57616.00" from="653473569#5" to="201956811#0"/>
	<trip id="carIn51024:1" type="default_016" depart="57616.10" from="124812856#0" to="202070434#2"/>
	<trip id="carIn102997:1" type="default_016" depart="57618.20" from="653473569#5" to="201956811#0"/>
	<trip id="carIn128705:1" type="default_016" depart="57618.40" from="124812856#0" to="202070434#2"/>
	<trip id="carIn767:1" type="default_016" depart="57618.50" from="124812856#0" to="-653473569#5"/>
	<trip id="h21989c1:1" type="default_016" depart="57620.40" from="124812856#0" to="202070434#2"/>
	<trip id="carIn75554:1" type="default_016" depart="57620.80" from="653473569#5" to="201956811#0"/>
	<trip id="carIn107842:1" type="default_016" depart="57621.10" from="124812856#0" to="-653473569#5"/>
	<trip id="carIn10158:1" type="default_016" depart="57621.20" from="-24693977#1" to="-266565295#5"/>
	<trip id="h645c1:1" type="default_016" depart="57621.60" from="266565295#5" to="-315358253#1"/>
	<trip id="h15382c1:3" type="default_016" depart="57622.20" from="124812856#0" to="-653473569#5"/>
	<trip id="60R.41" type="bus" depart="57622.70" from="27920078#0" to="201956811#0"/>
	<trip id="carIn3969:1" type="default_016" depart="57623.70" from="124812856#0" to="-653473569#5"/>
	<trip id="carIn56649:1" type="default_016" depart="57623.90" from="124812856#0" to="-653473569#5"/>
	<trip id="carIn13117:1" type="default_016" depart="57625.20" from="27920078#0" to="201956820"/>
	<trip id="carIn38625:1" type="default_016" depart="57625.50" from="124812856#0" to="-653473569#5"/>
	<trip id="h10915c2:1" type="default_016" depart="57625.80" from="315358253#1" to="-653473569#5"/>
	<trip id="carIn925:1" type="default_016" depart="57626.10" from="124812856#0" to="201956810"/>
	<trip id="carIn17767:1" type="default_016" depart="57627.20" from="124812856#0" to="-653473569#5"/>
	<trip id="carIn20106:1" type="default_016" depart="57627.30" from="27920078#0" to="201956820"/>
	<trip id="carIn25202:1" type="default_016" depart="57627.50" from="315358253#1" to="32978638#0"/>
	<trip id="randUni20090:1" type="random_016" depart="57628.00" from="653473569#5" to="201956811#0"/>
	<trip id="carIn64859:1" type="default_016" depart="57628.40" from="124812856#0" to="-653473569#5"/>
	<trip id="carIn48979:1" type="default_016" depart="57628.90" from="124812856#0" to="-653473569#5"/>
	<trip id="randUni5403:1" type="random_016" depart="57629.10" from="315358253#1" to="-653473569#5"/>
	<trip id="carIn111853:1" type="default_016" depart="57629.20" from="27920078#0" to="-266565295#5"/>
	<trip id="h21130c2:1" type="default_016" depart="57629.90" from="10425609#0" to="202070434#2"/>
	<trip id="carIn88932:1" type="default_016" depart="57630.60" from="124812856#0" to="-653473569#5"/>
	<trip id="h15353c2:1" type="default_016" depart="57630.70" from="124812856#0" to="-653473569#5"/>
	<trip id="carIn114137:1" type="default_016" depart="57630.90" from="27920078#0" to="-83304175#2"/>
	<trip id="carIn44740:1" type="default_016" depart="57632.30" from="124812856#0" to="-653473569#5"/>
	<trip id="carIn22637:1" type="default_016" depart="57632.50" from="27920078#0" to="-83304175#2"/>
	<trip id="randUni29093:1" type="random_016" depart="57633.00" from="124812856#0" to="-653473569#5"/>
	<trip id="h20232c1:2" type="default_016" depart="57633.50" from="-173169611#0" to="201956820"/>
	<trip id="h20540c1:1" type="default_016" depart="57633.50" from="10425609#0" to="-653473569#5"/>
	<trip id="carIn64490:1" type="default_016" depart="57633.90" from="124812856#0" to="-653473569#5"/>
	<trip id="randUni27349:1" type="random_016" depart="57633.90" from="27920078#0" to="201956811#0"/>
	<trip id="carIn37268:1" type="default_016" depart="57635.10" from="653473569#5" to="201956811#0"/>
	<trip id="carIn131078:1" type="default_016" depart="57635.40" from="124812856#0" to="201956810"/>
	<trip id="h20403c1:5" type="default_016" depart="57635.40" from="27920078#0" to="201956811#0"/>
	<trip id="carIn13362:1" type="default_016" depart="57635.60" from="124812856#0" to="-653473569#5"/>
	<trip id="carIn73466:1" type="default_016" depart="57636.90" from="27920078#0" to="201956811#0"/>
	<trip id="carIn99385:1" type="default_016" depart="57637.10" from="124812856#0" to="-653473569#5"/>
	<trip id="carIn11547:1" type="default_016" depart="57637.70" from="124812856#0" to="-653473569#5"/>
	<trip id="h19699c1:3" type="default_016" depart="57638.40" from="27920078#0" to="-266565295#5"/>
	<trip id="carIn100220:1" type="default_016" depart="57639.00" from="124812856#0" to="202070434#2"/>
	<trip id="h18569c2:1" type="default_016" depart="57640.00" from="27920078#0" to="-266565295#5"/>
	<trip id="carIn25314:1" type="default_016" depart="57640.20" from="124812856#0" to="-653473569#5"/>
	<trip id="60.39" type="bus" depart="57642.50" from="10425609#0" to="202070434#2"/>
	<trip id="carIn32621:1" type="default_016" depart="57643.00" from="124812856#0" to="-653473569#5"/>
	<trip id="carIn12152:1" type="default_016" depart="57646.50" from="24599188#0.94" to="24693977#1"/>
	<trip id="carIn12900:1" type="default_016" depart="57648.20" from="124812856#0" to="201956810"/>
	<trip id="carIn55461:1" type="default_016" depart="57651.70" from="10425609#0" to="201956810"/>
	<trip id="h3568c1:3" type="default_016" depart="57655.20" from="266565295#5" to="-24634415"/>
	<trip id="h5292c2:1" type="default_016" depart="57656.00" from="-24693977#1" to="-266565295#5"/>
	<trip id="h2215c1:1" type="default_016" depart="57656.10" from="25145012#7" to="201956811#0"/>
	<trip id="carIn106665:1" type="default_016" depart="57657.20" from="266565295#5" to="24693977#1"/>
	<trip id="carIn129760:1" type="default_016" depart="57660.20" from="653473569#5" to="201956811#0"/>
	<trip id="carIn7887:1" type="default_016" depart="57660.50" from="27920078#0" to="-83304175#2"/>
	<trip id="carIn129626:1" type="default_016" depart="57662.40" from="653473569#5" to="201956811#0"/>
	<trip id="carIn124416:1" type="default_016" depart="57662.50" from="-173169611#0" to="201956820"/>
	<trip id="carIn55090:1" type="default_016" depart="57664.60" from="-173169611#0" to="201956820"/>
	<trip id="h20539c1:3" type="default_016" depart="57664.80" from="653473569#5" to="201956811#0"/>
	<trip id="carIn102740:1" type="default_016" depart="57667.00" from="25145012#7" to="201956811#0"/>
	<trip id="carIn35345:1" type="default_016" depart="57668.60" from="25145012#7" to="201956811#0"/>
	<trip id="carIn33538:1" type="default_016" depart="57670.70" from="37386279" to="-24634414#4"/>
	<trip id="carIn26407:1" type="default_016" depart="57672.50" from="25145012#7" to="201956811#0"/>
	<trip id="carIn21160:1" type="default_016" depart="57673.90" from="-24693977#1" to="-266565295#5"/>
	<trip id="carIn12775:1" type="default_016" depart="57675.40" from="10425609#0" to="-653473569#5"/>
	<trip id="carIn90263:1" type="default_016" depart="57676.40" from="-24693977#1" to="-266565295#5"/>
	<trip id="h3688c1:1" type="default_016" depart="57678.50" from="315358253#1" to="32978638#0"/>
	<trip id="h3154c1:1" type="default_016" depart="57680.60" from="-24693977#1" to="-266565295#5"/>
	<trip id="h9878c1:3" type="default_016" depart="57685.30" from="-24693977#1" to="32978638#0"/>
	<trip id="carIn78692:1" type="default_016" depart="57693.50" from="25145012#7" to="201956811#0"/>
	<trip id="carIn91254:1" type="default_016" depart="57695.90" from="653473569#5" to="201956811#0"/>
	<trip id="h9894c1:3" type="default_016" depart="57697.80" from="-24693977#1" to="32978638#0"/>
	<trip id="carIn96193:1" type="default_016" depart="57704.40" from="25145012#7" to="201956811#0"/>
	<trip id="carIn98489:1" type="default_016" depart="57706.90" from="25145012#7" to="201956811#0"/>
	<trip id="h317c2:1" type="default_016" depart="57706.90" from="-32978638#0" to="-266565295#5"/>
	<trip id="carIn68826:1" type="default_016" depart="57711.00" from="266565295#5" to="202070434#2"/>
	<trip id="h11849c2:1" type="default_016" depart="57711.00" from="266565295#5" to="202070434#2"/>
	<trip id="carIn44477:1" type="default_016" depart="57711.30" from="27920078#0" to="-266565295#5"/>
	<trip id="carIn92532:1" type="default_016" depart="57712.50" from="266565295#5" to="-653473569#5"/>
	<trip id="carIn106325:1" type="default_016" depart="57712.90" from="27920078#0" to="-83304175#2"/>
	<trip id="carIn57508:1" type="default_016" depart="57714.60" from="27920078#0" to="-266565295#5"/>
	<trip id="carIn124439:1" type="default_016" depart="57716.20" from="27920078#0" to="-266565295#5"/>
	<trip id="carIn99738:1" type="default_016" depart="57717.70" from="27920078#0" to="-83304175#2"/>
	<trip id="randUni22709:1" type="random_016" depart="57717.80" from="315358253#1" to="32978638#0"/>
	<trip id="h4745c1:1" type="default_016" depart="57717.80" from="25145012#7" to="201956811#0"/>
	<trip id="h134c1:3" type="default_016" depart="57719.40" from="315358253#1" to="32978638#0"/>
	<trip id="carIn112789:1" type="default_016" depart="57719.40" from="27920078#0" to="-266565295#5"/>
	<trip id="carIn99509:1" type="default_015" depart="57719.80" from="-32978638#0" to="-315358253#1"/>
	<trip id="carIn74045:1" type="default_016" depart="57721.00" from="315358253#1" to="32978638#0"/>
	<trip id="carIn103916:1" type="default_016" depart="57721.10" from="27920078#0" to="-266565295#5"/>
	<trip id="h21189c1:3" type="default_016" depart="57721.90" from="10425609#0" to="202070434#2"/>
	<trip id="carIn33467:1" type="default_016" depart="57723.00" from="-24693977#1" to="32978638#0"/>
	<trip id="carIn70484:1" type="default_016" depart="57723.40" from="653473569#5" to="-266565295#5"/>
	<trip id="carIn87464:1" type="default_016" depart="57724.70" from="-24693977#1" to="-266565295#5"/>
	<trip id="carIn106797:1" type="default_016" depart="57725.00" from="653473569#5" to="201956811#0"/>
	<trip id="carIn26708:1" type="default_016" depart="57726.60" from="653473569#5" to="201956811#0"/>
	<trip id="carIn124270:1" type="default_016" depart="57727.40" from="25145012#7" to="201956811#0"/>
	<trip id="carIn48988:1" type="default_016" depart="57728.10" from="653473569#5" to="-266565295#5"/>
	<trip id="h19989c1:1" type="default_016" depart="57729.40" from="10425609#0" to="-653473569#5"/>
	<trip id="carIn34550:1" type="default_016" depart="57730.40" from="653473569#5" to="201956811#0"/>
	<trip id="carIn92858:1" type="default_016" depart="57732.20" from="10425609#0" to="-653473569#5"/>
	<trip id="carIn41791:1" type="default_016" depart="57732.20" from="653473569#5" to="201956811#0"/>
	<trip id="carIn101439:1" type="default_016" depart="57734.30" from="10425609#0" to="-653473569#5"/>
	<trip id="carIn13016:1" type="default_016" depart="57735.50" from="653473569#5" to="201956811#0"/>
	<trip id="h330c1:1" type="default_016" depart="57735.80" from="-32978638#0" to="-266565295#5"/>
	<trip id="carIn84229:1" type="default_016" depart="57736.80" from="10425609#0" to="-653473569#5"/>
	<trip id="carIn70477:1" type="default_016" depart="57737.80" from="653473569#5" to="201956811#0"/>
	<trip id="carIn129628:1" type="default_016" depart="57738.50" from="24599188#0.94" to="24693977#1"/>
	<trip id="carIn61538:1" type="default_016" depart="57738.70" from="27920078#0" to="-266565295#5"/>
	<trip id="11_frequency1.42" type="bus" depart="57738.70" from="315358253#1" to="32978638#0"/>
	<trip id="randUni26227:1" type="random_016" depart="57740.50" from="653473569#5" to="201956811#0"/>
	<trip id="carIn98605:1" type="default_016" depart="57740.80" from="315358253#1" to="32978638#0"/>
	<trip id="carIn7365:1" type="default_016" depart="57741.30" from="10425609#0" to="202070434#2"/>
	<trip id="h319c1:3" type="default_016" depart="57742.30" from="315358253#1" to="32978638#0"/>
	<trip id="h10591c1:1" type="default_016" depart="57742.40" from="266565295#5" to="-653473569#5"/>
	<trip id="h7328c1:1" type="default_016" depart="57742.40" from="-24693977#1" to="201956820"/>
	<trip id="h13760c1:1" type="default_016" depart="57742.90" from="266565295#5" to="24693977#1"/>
	<trip id="carIn42651:1" type="default_016" depart="57743.10" from="25145012#7" to="201956820"/>
	<trip id="carIn16842:1" type="default_016" depart="57743.60" from="10425609#0" to="-653473569#5"/>
	<trip id="h5925c1:1" type="default_016" depart="57743.80" from="315358253#1" to="202070434#2"/>
	<trip id="h18300c2:1" type="default_016" depart="57744.70" from="25145012#7" to="201956811#0"/>
	<trip id="carIn107250:1" type="default_016" depart="57745.30" from="315358253#1" to="32978638#0"/>
	<trip id="carIn75079:1" type="default_016" depart="57746.40" from="-173169611#0" to="201956820"/>
	<trip id="randUni14624:1" type="random_016" depart="57747.00" from="315358253#1" to="-653473569#5"/>
	<trip id="h14316c1:3" type="default_016" depart="57749.00" from="315358253#1" to="32978638#0"/>
	<trip id="carIn24735:1" type="default_016" depart="57749.70" from="266565295#5" to="24693977#1"/>
	<trip id="carIn24709:1" type="default_016" depart="57750.50" from="266565295#5" to="24693977#1"/>
	<trip id="carIn77243:1" type="default_016" depart="57751.80" from="266565295#5" to="202070434#2"/>
	<trip id="carIn95310:1" type="default_016" depart="57752.50" from="27920078#0" to="-83304175#2"/>
	<trip id="carIn27994:1" type="default_016" depart="57754.20" from="27920078#0" to="-266565295#5"/>
	<trip id="carIn40211:1" type="default_016" depart="57756.00" from="27920078#0" to="-83304175#2"/>
	<trip id="carIn117869:1" type="default_016" depart="57757.40" from="-32978638#0" to="-315358253#1"/>
	<trip id="h2108c1:1" type="default_016" depart="57758.00" from="27920078#0" to="-315358253#1"/>
	<trip id="carIn115169:1" type="default_016" depart="57758.50" from="24599188#0.94" to="24693977#1"/>
	<trip id="carIn27323:1" type="default_016" depart="57760.50" from="24599188#0.94" to="24693977#1"/>
	<trip id="h9873c2:1" type="default_016" depart="57765.40" from="-32978638#0" to="202070434#2"/>
	<trip id="carIn106296:1" type="default_016" depart="57767.00" from="124812856#0" to="-653473569#5"/>
	<trip id="carIn86816:1" type="default_016" depart="57768.30" from="653473569#5" to="201956811#0"/>
	<trip id="carIn104643:1" type="default_016" depart="57773.50" from="124812856#0" to="-653473569#5"/>
	<trip id="carIn42216:1" type="default_016" depart="57773.90" from="-173169611#0" to="201956820"/>
	<trip id="carIn7631:1" type="default_016" depart="57785.30" from="-32978638#0" to="-315358253#1"/>
	<trip id="carIn79321:1" type="default_016" depart="57785.60" from="-24693977#1" to="-266565295#5"/>
	<trip id="carIn84825:1" type="default_016" depart="57787.20" from="-24693977#1" to="-266565295#5"/>
	<trip id="h19105c2:3" type="default_016" depart="57794.40" from="10425609#0" to="-653473569#5"/>
	<trip id="carIn71528:1" type="default_016" depart="57797.10" from="-24693977#1" to="-266565295#5"/>
	<trip id="carIn41197:1" type="default_016" depart="57797.30" from="25145012#7" to="201956820"/>
	<trip id="carIn48068:1" type="default_016" depart="57798.20" from="27920078#0" to="-83304175#2"/>
	<trip id="carIn60437:1" type="default_016" depart="57799.70" from="27920078#0" to="-83304175#2"/>
	<trip id="carIn86381:1" type="default_016" depart="57800.80" from="266565295#5" to="202070434#2"/>
	<trip id="carIn32135:1" type="default_016" depart="57801.20" from="27920078#0" to="201956811#0"/>
	<trip id="carIn57377:1" type="default_016" depart="57801.70" from="266565295#5" to="202070434#2"/>
	<trip id="carIn46110:1" type="default_016" depart="57803.60" from="315358253#1" to="32978638#0"/>
	<trip id="carIn47486:1" type="default_016" depart="57804.30" from="266565295#5" to="202070434#2"/>
	<trip id="h6541c1:3" type="default_016" depart="57806.40" from="315358253#1" to="32978638#0"/>
	<trip id="carIn102915:1" type="default_016" depart="57810.10" from="653473569#5" to="201956811#0"/>
	<trip id="randUni33724:1" type="random_016" depart="57811.80" from="653473569#5" to="201956811#0"/>
	<trip id="carIn100288:1" type="default_016" depart="57812.30" from="25145012#7" to="201956811#0"/>
	<trip id="randUni31145:1" type="random_016" depart="57813.70" from="10425609#0" to="201956810"/>
	<trip id="carIn29531:1" type="default_016" depart="57816.60" from="25145012#7" to="201956811#0"/>
	<trip id="carIn2912:1" type="default_016" depart="57818.20" from="25145012#7" to="201956811#0"/>
	<trip id="carIn9810:1" type="default_016" depart="57819.20" from="315358253#1" to="32978638#0"/>
	<trip id="randUni2407:1" type="random_016" depart="57819.20" from="10425609#0" to="201956810"/>
	<trip id="carIn49437:1" type="default_016" depart="57819.70" from="25145012#7" to="201956811#0"/>
	<trip id="carIn114105:1" type="default_016" depart="57820.80" from="10425609#0" to="-653473569#5"/>
	<trip id="h5170c2:1" type="default_016" depart="57825.00" from="-24693977#1" to="-266565295#5"/>
	<trip id="carIn72316:1" type="default_016" depart="57825.50" from="10425609#0" to="-653473569#5"/>
	<trip id="h2483c1:1" type="default_016" depart="57826.50" from="-24693977#1" to="201956820"/>
	<trip id="carIn82399:1" type="default_016" depart="57827.30" from="10425609#0" to="202070434#2"/>
	<trip id="h18996c2:1" type="default_016" depart="57829.00" from="25145012#7" to="201956820"/>
	<trip id="randUni6170:1" type="random_016" depart="57834.80" from="10425609#0" to="202070434#2"/>
	<trip id="h3536c1:1" type="default_016" depart="57835.20" from="315358253#1" to="32978638#0"/>
	<trip id="carIn70936:1" type="default_016" depart="57837.90" from="24599188#0.94" to="24693977#1"/>
	<trip id="h8222c1:5" type="default_016" depart="57838.10" from="266565295#5" to="24693977#1"/>
	<trip id="carIn36687:1" type="default_016" depart="57839.90" from="24599188#0.94" to="24693977#1"/>
	<trip id="carIn105694:1" type="default_016" depart="57840.10" from="266565295#5" to="202070434#2"/>
	<trip id="h15564c1:1" type="default_016" depart="57842.50" from="10425609#0" to="202070434#2"/>
	<trip id="carIn32833:1" type="default_016" depart="57843.60" from="24599188#0.94" to="24693977#1"/>
	<trip id="h13318c2:1" type="default_016" depart="57843.60" from="-32978638#0" to="202070434#2"/>
	<trip id="carIn116805:1" type="default_016" depart="57844.00" from="266565295#5" to="-653473569#5"/>
	<trip id="carIn20174:1" type="default_016" depart="57845.20" from="-32978638#0" to="24693977#1"/>
	<trip id="carIn2162:1" type="default_016" depart="57846.80" from="-32978638#0" to="24693977#1"/>
	<trip id="h2997c2:1" type="default_016" depart="57848.40" from="27920078#0" to="-83304175#2"/>
	<trip id="carIn83006:1" type="default_016" depart="57848.50" from="-32978638#0" to="24693977#1"/>
	<trip id="carIn101921:1" type="default_016" depart="57850.10" from="-32978638#0" to="-315358253#1"/>
	<trip id="h7759c1:3" type="default_016" depart="57851.80" from="-32978638#0" to="-315358253#1"/>
	<trip id="h8633c1:3" type="default_016" depart="57853.00" from="-24693977#1" to="201956820"/>
	<trip id="carIn120813:1" type="default_016" depart="57855.60" from="24599188#0.94" to="24693977#1"/>
	<trip id="carIn64958:1" type="default_016" depart="57856.40" from="10425609#0" to="-653473569#5"/>
	<trip id="carIn103052:1" type="default_016" depart="57858.10" from="124812856#0" to="201956810"/>
	<trip id="50R_frequency3.17" type="bus" depart="57860.90" from="653473569#5" to="201956811#0"/>
	<trip id="h13311c1:3" type="default_016" depart="57861.00" from="315358253#1" to="32978638#0"/>
	<trip id="randUni24217:1" type="random_016" depart="57861.20" from="124812856#0" to="-653473569#5"/>
	<trip id="h18601c1:3" type="default_016" depart="57863.10" from="653473569#5" to="201956811#0"/>
	<trip id="randUni13258:1" type="random_016" depart="57863.60" from="-173169611#0" to="-315358253#1"/>
	<trip id="carIn133015:1" type="default_016" depart="57864.00" from="10425609#0" to="-653473569#5"/>
	<trip id="carIn88912:1" type="default_016" depart="57866.80" from="-32978638#0" to="-315358253#1"/>
	<trip id="carIn126072:1" type="default_016" depart="57869.20" from="315358253#1" to="32978638#0"/>
	<trip id="randUni33912:1" type="random_016" depart="57873.00" from="-22716549#6" to="202070434#2"/>
	<trip id="carIn27352:1" type="default_016" depart="57878.20" from="124812856#0" to="201956810"/>
	<trip id="h19571c2:3" type="default_016" depart="57881.70" from="10425609#0" to="-653473569#5"/>
	<trip id="carIn75793:1" type="default_016" depart="57883.20" from="653473569#5" to="-83304175#2"/>
	<trip id="randUni23028:1" type="random_016" depart="57883.90" from="124812856#0" to="201956810"/>
	<trip id="carIn69046:1" type="default_016" depart="57886.60" from="-32978638#0" to="-315358253#1"/>
	<trip id="h21699c2:1" type="default_016" depart="57888.10" from="-32978638#0" to="-315358253#1"/>
	<trip id="h2767c1:1" type="default_016" depart="57888.30" from="27920078#0" to="-315358253#1"/>
	<trip id="h18868c2:3" type="default_016" depart="57889.60" from="-32978638#0" to="24693977#1"/>
	<trip id="carIn44541:1" type="default_016" depart="57890.20" from="27920078#0" to="-83304175#2"/>
	<trip id="h16888c2:1" type="default_016" depart="57892.00" from="266565295#5" to="24693977#1"/>
	<trip id="h17890c1:3" type="default_016" depart="57892.10" from="315358253#1" to="32978638#0"/>
	<trip id="carIn82741:1" type="default_016" depart="57892.90" from="25145012#7" to="201956820"/>
	<trip id="h22816c2:3" type="default_016" depart="57895.30" from="315358253#1" to="201956820"/>
	<trip id="h19249c2:1" type="default_016" depart="57897.60" from="25145012#7" to="201956820"/>
	<trip id="h4784c1:3" type="default_016" depart="57898.90" from="315358253#1" to="32978638#0"/>
	<trip id="h21872c1:1" type="default_016" depart="57900.30" from="-32978638#0" to="-315358253#1"/>
	<trip id="carIn41236:1" type="default_016" depart="57901.90" from="-32978638#0" to="-315358253#1"/>
	<trip id="carIn48137:1" type="default_016" depart="57902.80" from="315358253#1" to="32978638#0"/>
	<trip id="carIn125694:1" type="default_016" depart="57903.70" from="25145012#7" to="201956820"/>
	<trip id="10R_frequency1.41" type="bus" depart="57905.40" from="-32978638#0" to="24693977#1"/>
	<trip id="h17593c1:1" type="default_016" depart="57906.10" from="10425609#0" to="-653473569#5"/>
	<trip id="h3847c1:3" type="default_016" depart="57906.60" from="315358253#1" to="32978638#0"/>
	<trip id="carIn101809:1" type="default_016" depart="57907.40" from="-32978638#0" to="-315358253#1"/>
	<trip id="carIn88487:1" type="default_016" depart="57909.20" from="-32978638#0" to="-315358253#1"/>
	<trip id="randUni16001:1" type="random_016" depart="57911.70" from="10425609#0" to="201956810"/>
	<trip id="carIn127305:1" type="default_016" depart="57914.60" from="-173169611#0" to="201956820"/>
	<trip id="randUni26693:1" type="random_016" depart="57923.30" from="266565295#5" to="24693977#1"/>
	<trip id="carIn39047:1" type="default_016" depart="57926.60" from="266565295#5" to="24693977#1"/>
	<trip id="h21908c1:3" type="default_016" depart="57926.80" from="-24693977#1" to="201956820"/>
	<trip id="h15472c1:3" type="default_016" depart="57928.40" from="-24693977#1" to="201956820"/>
	<trip id="h17086c2:1" type="default_016" depart="57929.20" from="266565295#5" to="24693977#1"/>
	<trip id="h19505c1:1" type="default_016" depart="57929.70" from="315358253#1" to="32978638#0"/>
	<trip id="carIn79443:1" type="default_016" depart="57930.30" from="266565295#5" to="202070434#2"/>
	<trip id="carIn92490:1" type="default_016" depart="57930.70" from="266565295#5" to="24693977#1"/>
	<trip id="h13562c1:1" type="default_016" depart="57931.60" from="-32978638#0" to="24693977#1"/>
	<trip id="carIn92238:1" type="default_016" depart="57935.60" from="-32978638#0" to="-315358253#1"/>
	<trip id="carIn112995:1" type="default_016" depart="57936.30" from="10425609#0" to="-653473569#5"/>
	<trip id="h8907c1:1" type="default_016" depart="57937.30" from="-32978638#0" to="24693977#1"/>
	<trip id="carIn15652:1" type="default_016" depart="57938.90" from="-32978638#0" to="24693977#1"/>
	<trip id="randUni5976:1" type="random_016" depart="57939.40" from="10425609#0" to="-653473569#5"/>
	<trip id="carIn98105:1" type="default_016" depart="57940.30" from="124812856#0" to="201956810"/>
	<trip id="carIn14948:1" type="default_016" depart="57940.90" from="-32978638#0" to="-315358253#1"/>
	<trip id="carIn99578:1" type="default_016" depart="57941.00" from="25145012#7" to="201956820"/>
	<trip id="carIn36876:1" type="default_016" depart="57942.60" from="-32978638#0" to="-315358253#1"/>
	<trip id="h14212c1:3" type="default_016" depart="57943.10" from="10425609#0" to="-653473569#5"/>
	<trip id="h2510c1:1" type="default_016" depart="57944.30" from="-24693977#1" to="201956820"/>
	<trip id="h19940c1:1" type="default_016" depart="57944.70" from="10425609#0" to="-653473569#5"/>
	<trip id="carIn67360:1" type="default_016" depart="57944.80" from="124812856#0" to="-653473569#5"/>
	<trip id="h10c2:3" type="default_016" depart="57945.10" from="-32978638#0" to="-315358253#1"/>
	<trip id="carIn60827:1" type="default_016" depart="57946.40" from="10425609#0" to="-653473569#5"/>
	<trip id="carIn23683:1" type="default_016" depart="57949.30" from="25145012#7" to="201956820"/>
	<trip id="carIn96510:1" type="default_016" depart="57950.90" from="25145012#7" to="201956820"/>
	<trip id="carIn119432:1" type="default_016" depart="57952.50" from="25145012#7" to="201956820"/>