<?xml version="1.0" encoding="UTF-8"?>

<!-- generated on seg 17 dez 2018 19:17:58 -02 by Netedit Version 0.32.0
<?xml version="1.0" encoding="UTF-8"?>

<configuration xmlns:xsi="http://www.w3.org/2001/XMLSchema-instance" xsi:noNamespaceSchemaLocation="http://sumo.dlr.de/xsd/netconvertConfiguration.xsd">

    <input>
        <sumo-net-file value="nets/4x4-Lucas/4x4.net.xml"/>
    </input>

    <output>
        <output-file value="nets/4x4-Lucas/4x4.net.xml"/>
    </output>

    <processing>
        <no-turnarounds value="true"/>
        <offset.disable-normalization value="true"/>
        <lefthand value="false"/>
        <junctions.corner-detail value="0"/>
        <rectangular-lane-cut value="false"/>
        <walkingareas value="false"/>
    </processing>

</configuration>
-->

<net version="0.27" xmlns:xsi="http://www.w3.org/2001/XMLSchema-instance" xsi:noNamespaceSchemaLocation="http://sumo.dlr.de/xsd/net_file.xsd">

    <location netOffset="-1850.00,-2900.00" convBoundary="0.00,0.00,750.00,750.00" origBoundary="1850.00,2900.00,2600.00,3650.00" projParameter="!"/>

    <edge id=":0_0" function="internal">
        <lane id=":0_0_0" index="0" speed="13.90" length="9.50" shape="145.05,601.45 145.05,591.95"/>
        <lane id=":0_0_1" index="1" speed="13.90" length="9.50" shape="148.35,601.45 148.35,591.95"/>
    </edge>
    <edge id=":0_2" function="internal">
        <lane id=":0_2_0" index="0" speed="13.90" length="5.00" shape="148.35,601.45 148.54,600.09 149.12,599.12 150.09,598.54 151.45,598.35"/>
    </edge>
    <edge id=":0_3" function="internal">
        <lane id=":0_3_0" index="0" speed="13.90" length="5.00" shape="141.95,595.05 143.31,594.86 144.28,594.27 144.86,593.31 145.05,591.95"/>
    </edge>
    <edge id=":0_4" function="internal">
        <lane id=":0_4_0" index="0" speed="13.90" length="9.50" shape="141.95,595.05 151.45,595.05"/>
        <lane id=":0_4_1" index="1" speed="13.90" length="9.50" shape="141.95,598.35 151.45,598.35"/>
    </edge>
    <edge id=":1_0" function="internal">
        <lane id=":1_0_0" index="0" speed="13.90" length="9.50" shape="295.05,601.45 295.05,591.95"/>
        <lane id=":1_0_1" index="1" speed="13.90" length="9.50" shape="298.35,601.45 298.35,591.95"/>
    </edge>
    <edge id=":1_2" function="internal">
        <lane id=":1_2_0" index="0" speed="13.90" length="5.00" shape="298.35,601.45 298.54,600.09 299.12,599.12 300.09,598.54 301.45,598.35"/>
    </edge>
    <edge id=":1_3" function="internal">
        <lane id=":1_3_0" index="0" speed="13.90" length="5.00" shape="291.95,595.05 293.31,594.86 294.27,594.27 294.86,593.31 295.05,591.95"/>
    </edge>
    <edge id=":1_4" function="internal">
        <lane id=":1_4_0" index="0" speed="13.90" length="9.50" shape="291.95,595.05 301.45,595.05"/>
        <lane id=":1_4_1" index="1" speed="13.90" length="9.50" shape="291.95,598.35 301.45,598.35"/>
    </edge>
    <edge id=":10_0" function="internal">
        <lane id=":10_0_0" index="0" speed="13.90" length="9.50" shape="445.05,301.45 445.05,291.95"/>
        <lane id=":10_0_1" index="1" speed="13.90" length="9.50" shape="448.35,301.45 448.35,291.95"/>
    </edge>
    <edge id=":10_2" function="internal">
        <lane id=":10_2_0" index="0" speed="13.90" length="5.00" shape="448.35,301.45 448.54,300.09 449.13,299.12 450.09,298.54 451.45,298.35"/>
    </edge>
    <edge id=":10_3" function="internal">
        <lane id=":10_3_0" index="0" speed="13.90" length="5.00" shape="441.95,295.05 443.31,294.86 444.27,294.28 444.86,293.31 445.05,291.95"/>
    </edge>
    <edge id=":10_4" function="internal">
        <lane id=":10_4_0" index="0" speed="13.90" length="9.50" shape="441.95,295.05 451.45,295.05"/>
        <lane id=":10_4_1" index="1" speed="13.90" length="9.50" shape="441.95,298.35 451.45,298.35"/>
    </edge>
    <edge id=":11_0" function="internal">
        <lane id=":11_0_0" index="0" speed="13.90" length="9.50" shape="595.05,301.45 595.05,291.95"/>
        <lane id=":11_0_1" index="1" speed="13.90" length="9.50" shape="598.35,301.45 598.35,291.95"/>
    </edge>
    <edge id=":11_2" function="internal">
        <lane id=":11_2_0" index="0" speed="13.90" length="5.00" shape="598.35,301.45 598.54,300.09 599.12,299.12 600.09,298.54 601.45,298.35"/>
    </edge>
    <edge id=":11_3" function="internal">
        <lane id=":11_3_0" index="0" speed="13.90" length="5.00" shape="591.95,295.05 593.31,294.86 594.27,294.28 594.86,293.31 595.05,291.95"/>
    </edge>
    <edge id=":11_4" function="internal">
        <lane id=":11_4_0" index="0" speed="13.90" length="9.50" shape="591.95,295.05 601.45,295.05"/>
        <lane id=":11_4_1" index="1" speed="13.90" length="9.50" shape="591.95,298.35 601.45,298.35"/>
    </edge>
    <edge id=":12_0" function="internal">
        <lane id=":12_0_0" index="0" speed="13.90" length="9.50" shape="145.05,151.45 145.05,141.95"/>
        <lane id=":12_0_1" index="1" speed="13.90" length="9.50" shape="148.35,151.45 148.35,141.95"/>
    </edge>
    <edge id=":12_2" function="internal">
        <lane id=":12_2_0" index="0" speed="13.90" length="5.00" shape="148.35,151.45 148.54,150.09 149.12,149.12 150.09,148.54 151.45,148.35"/>
    </edge>
    <edge id=":12_3" function="internal">
        <lane id=":12_3_0" index="0" speed="13.90" length="5.00" shape="141.95,145.05 143.31,144.86 144.28,144.28 144.86,143.31 145.05,141.95"/>
    </edge>
    <edge id=":12_4" function="internal">
        <lane id=":12_4_0" index="0" speed="13.90" length="9.50" shape="141.95,145.05 151.45,145.05"/>
        <lane id=":12_4_1" index="1" speed="13.90" length="9.50" shape="141.95,148.35 151.45,148.35"/>
    </edge>
    <edge id=":13_0" function="internal">
        <lane id=":13_0_0" index="0" speed="13.90" length="9.50" shape="295.05,151.45 295.05,141.95"/>
        <lane id=":13_0_1" index="1" speed="13.90" length="9.50" shape="298.35,151.45 298.35,141.95"/>
    </edge>
    <edge id=":13_2" function="internal">
        <lane id=":13_2_0" index="0" speed="13.90" length="5.00" shape="298.35,151.45 298.54,150.09 299.12,149.12 300.09,148.54 301.45,148.35"/>
    </edge>
    <edge id=":13_3" function="internal">
        <lane id=":13_3_0" index="0" speed="13.90" length="5.00" shape="291.95,145.05 293.31,144.86 294.27,144.28 294.86,143.31 295.05,141.95"/>
    </edge>
    <edge id=":13_4" function="internal">
        <lane id=":13_4_0" index="0" speed="13.90" length="9.50" shape="291.95,145.05 301.45,145.05"/>
        <lane id=":13_4_1" index="1" speed="13.90" length="9.50" shape="291.95,148.35 301.45,148.35"/>
    </edge>
    <edge id=":14_0" function="internal">
        <lane id=":14_0_0" index="0" speed="13.90" length="9.50" shape="445.05,151.45 445.05,141.95"/>
        <lane id=":14_0_1" index="1" speed="13.90" length="9.50" shape="448.35,151.45 448.35,141.95"/>
    </edge>
    <edge id=":14_2" function="internal">
        <lane id=":14_2_0" index="0" speed="13.90" length="5.00" shape="448.35,151.45 448.54,150.09 449.13,149.12 450.09,148.54 451.45,148.35"/>
    </edge>
    <edge id=":14_3" function="internal">
        <lane id=":14_3_0" index="0" speed="13.90" length="5.00" shape="441.95,145.05 443.31,144.86 444.27,144.28 444.86,143.31 445.05,141.95"/>
    </edge>
    <edge id=":14_4" function="internal">
        <lane id=":14_4_0" index="0" speed="13.90" length="9.50" shape="441.95,145.05 451.45,145.05"/>
        <lane id=":14_4_1" index="1" speed="13.90" length="9.50" shape="441.95,148.35 451.45,148.35"/>
    </edge>
    <edge id=":15_0" function="internal">
        <lane id=":15_0_0" index="0" speed="13.90" length="9.50" shape="595.05,151.45 595.05,141.95"/>
        <lane id=":15_0_1" index="1" speed="13.90" length="9.50" shape="598.35,151.45 598.35,141.95"/>
    </edge>
    <edge id=":15_2" function="internal">
        <lane id=":15_2_0" index="0" speed="13.90" length="5.00" shape="598.35,151.45 598.54,150.09 599.12,149.12 600.09,148.54 601.45,148.35"/>
    </edge>
    <edge id=":15_3" function="internal">
        <lane id=":15_3_0" index="0" speed="13.90" length="5.00" shape="591.95,145.05 593.31,144.86 594.27,144.28 594.86,143.31 595.05,141.95"/>
    </edge>
    <edge id=":15_4" function="internal">
        <lane id=":15_4_0" index="0" speed="13.90" length="9.50" shape="591.95,145.05 601.45,145.05"/>
        <lane id=":15_4_1" index="1" speed="13.90" length="9.50" shape="591.95,148.35 601.45,148.35"/>
    </edge>
    <edge id=":2_0" function="internal">
        <lane id=":2_0_0" index="0" speed="13.90" length="9.50" shape="445.05,601.45 445.05,591.95"/>
        <lane id=":2_0_1" index="1" speed="13.90" length="9.50" shape="448.35,601.45 448.35,591.95"/>
    </edge>
    <edge id=":2_2" function="internal">
        <lane id=":2_2_0" index="0" speed="13.90" length="5.00" shape="448.35,601.45 448.54,600.09 449.13,599.12 450.09,598.54 451.45,598.35"/>
    </edge>
    <edge id=":2_3" function="internal">
        <lane id=":2_3_0" index="0" speed="13.90" length="5.00" shape="441.95,595.05 443.31,594.86 444.27,594.27 444.86,593.31 445.05,591.95"/>
    </edge>
    <edge id=":2_4" function="internal">
        <lane id=":2_4_0" index="0" speed="13.90" length="9.50" shape="441.95,595.05 451.45,595.05"/>
        <lane id=":2_4_1" index="1" speed="13.90" length="9.50" shape="441.95,598.35 451.45,598.35"/>
    </edge>
    <edge id=":3_0" function="internal">
        <lane id=":3_0_0" index="0" speed="13.90" length="9.50" shape="595.05,601.45 595.05,591.95"/>
        <lane id=":3_0_1" index="1" speed="13.90" length="9.50" shape="598.35,601.45 598.35,591.95"/>
    </edge>
    <edge id=":3_2" function="internal">
        <lane id=":3_2_0" index="0" speed="13.90" length="5.00" shape="598.35,601.45 598.54,600.09 599.12,599.12 600.09,598.54 601.45,598.35"/>
    </edge>
    <edge id=":3_3" function="internal">
        <lane id=":3_3_0" index="0" speed="13.90" length="5.00" shape="591.95,595.05 593.31,594.86 594.27,594.27 594.86,593.31 595.05,591.95"/>
    </edge>
    <edge id=":3_4" function="internal">
        <lane id=":3_4_0" index="0" speed="13.90" length="9.50" shape="591.95,595.05 601.45,595.05"/>
        <lane id=":3_4_1" index="1" speed="13.90" length="9.50" shape="591.95,598.35 601.45,598.35"/>
    </edge>
    <edge id=":4_0" function="internal">
        <lane id=":4_0_0" index="0" speed="13.90" length="9.50" shape="145.05,451.45 145.05,441.95"/>
        <lane id=":4_0_1" index="1" speed="13.90" length="9.50" shape="148.35,451.45 148.35,441.95"/>
    </edge>
    <edge id=":4_2" function="internal">
        <lane id=":4_2_0" index="0" speed="13.90" length="5.00" shape="148.35,451.45 148.54,450.09 149.12,449.12 150.09,448.54 151.45,448.35"/>
    </edge>
    <edge id=":4_3" function="internal">
        <lane id=":4_3_0" index="0" speed="13.90" length="5.00" shape="141.95,445.05 143.31,444.86 144.28,444.28 144.86,443.31 145.05,441.95"/>
    </edge>
    <edge id=":4_4" function="internal">
        <lane id=":4_4_0" index="0" speed="13.90" length="9.50" shape="141.95,445.05 151.45,445.05"/>
        <lane id=":4_4_1" index="1" speed="13.90" length="9.50" shape="141.95,448.35 151.45,448.35"/>
    </edge>
    <edge id=":5_0" function="internal">
        <lane id=":5_0_0" index="0" speed="13.90" length="9.50" shape="295.05,451.45 295.05,441.95"/>
        <lane id=":5_0_1" index="1" speed="13.90" length="9.50" shape="298.35,451.45 298.35,441.95"/>
    </edge>
    <edge id=":5_2" function="internal">
        <lane id=":5_2_0" index="0" speed="13.90" length="5.00" shape="298.35,451.45 298.54,450.09 299.12,449.12 300.09,448.54 301.45,448.35"/>
    </edge>
    <edge id=":5_3" function="internal">
        <lane id=":5_3_0" index="0" speed="13.90" length="5.00" shape="291.95,445.05 293.31,444.86 294.27,444.28 294.86,443.31 295.05,441.95"/>
    </edge>
    <edge id=":5_4" function="internal">
        <lane id=":5_4_0" index="0" speed="13.90" length="9.50" shape="291.95,445.05 301.45,445.05"/>
        <lane id=":5_4_1" index="1" speed="13.90" length="9.50" shape="291.95,448.35 301.45,448.35"/>
    </edge>
    <edge id=":6_0" function="internal">
        <lane id=":6_0_0" index="0" speed="13.90" length="9.50" shape="445.05,451.45 445.05,441.95"/>
        <lane id=":6_0_1" index="1" speed="13.90" length="9.50" shape="448.35,451.45 448.35,441.95"/>
    </edge>
    <edge id=":6_2" function="internal">
        <lane id=":6_2_0" index="0" speed="13.90" length="5.00" shape="448.35,451.45 448.54,450.09 449.13,449.12 450.09,448.54 451.45,448.35"/>
    </edge>
    <edge id=":6_3" function="internal">
        <lane id=":6_3_0" index="0" speed="13.90" length="5.00" shape="441.95,445.05 443.31,444.86 444.27,444.28 444.86,443.31 445.05,441.95"/>
    </edge>
    <edge id=":6_4" function="internal">
        <lane id=":6_4_0" index="0" speed="13.90" length="9.50" shape="441.95,445.05 451.45,445.05"/>
        <lane id=":6_4_1" index="1" speed="13.90" length="9.50" shape="441.95,448.35 451.45,448.35"/>
    </edge>
    <edge id=":7_0" function="internal">
        <lane id=":7_0_0" index="0" speed="13.90" length="9.50" shape="595.05,451.45 595.05,441.95"/>
        <lane id=":7_0_1" index="1" speed="13.90" length="9.50" shape="598.35,451.45 598.35,441.95"/>
    </edge>
    <edge id=":7_2" function="internal">
        <lane id=":7_2_0" index="0" speed="13.90" length="5.00" shape="598.35,451.45 598.54,450.09 599.12,449.12 600.09,448.54 601.45,448.35"/>
    </edge>
    <edge id=":7_3" function="internal">
        <lane id=":7_3_0" index="0" speed="13.90" length="5.00" shape="591.95,445.05 593.31,444.86 594.27,444.28 594.86,443.31 595.05,441.95"/>
    </edge>
    <edge id=":7_4" function="internal">
        <lane id=":7_4_0" index="0" speed="13.90" length="9.50" shape="591.95,445.05 601.45,445.05"/>
        <lane id=":7_4_1" index="1" speed="13.90" length="9.50" shape="591.95,448.35 601.45,448.35"/>
    </edge>
    <edge id=":8_0" function="internal">
        <lane id=":8_0_0" index="0" speed="13.90" length="9.50" shape="145.05,301.45 145.05,291.95"/>
        <lane id=":8_0_1" index="1" speed="13.90" length="9.50" shape="148.35,301.45 148.35,291.95"/>
    </edge>
    <edge id=":8_2" function="internal">
        <lane id=":8_2_0" index="0" speed="13.90" length="5.00" shape="148.35,301.45 148.54,300.09 149.12,299.12 150.09,298.54 151.45,298.35"/>
    </edge>
    <edge id=":8_3" function="internal">
        <lane id=":8_3_0" index="0" speed="13.90" length="5.00" shape="141.95,295.05 143.31,294.86 144.28,294.28 144.86,293.31 145.05,291.95"/>
    </edge>
    <edge id=":8_4" function="internal">
        <lane id=":8_4_0" index="0" speed="13.90" length="9.50" shape="141.95,295.05 151.45,295.05"/>
        <lane id=":8_4_1" index="1" speed="13.90" length="9.50" shape="141.95,298.35 151.45,298.35"/>
    </edge>
    <edge id=":9_0" function="internal">
        <lane id=":9_0_0" index="0" speed="13.90" length="9.50" shape="295.05,301.45 295.05,291.95"/>
        <lane id=":9_0_1" index="1" speed="13.90" length="9.50" shape="298.35,301.45 298.35,291.95"/>
    </edge>
    <edge id=":9_2" function="internal">
        <lane id=":9_2_0" index="0" speed="13.90" length="5.00" shape="298.35,301.45 298.54,300.09 299.12,299.12 300.09,298.54 301.45,298.35"/>
    </edge>
    <edge id=":9_3" function="internal">
        <lane id=":9_3_0" index="0" speed="13.90" length="5.00" shape="291.95,295.05 293.31,294.86 294.27,294.28 294.86,293.31 295.05,291.95"/>
    </edge>
    <edge id=":9_4" function="internal">
        <lane id=":9_4_0" index="0" speed="13.90" length="9.50" shape="291.95,295.05 301.45,295.05"/>
        <lane id=":9_4_1" index="1" speed="13.90" length="9.50" shape="291.95,298.35 301.45,298.35"/>
    </edge>

    <edge id="0to1" from="0" to="1" priority="-1">
        <lane id="0to1_0" index="0" speed="13.90" length="140.50" shape="151.45,595.05 291.95,595.05"/>
        <lane id="0to1_1" index="1" speed="13.90" length="140.50" shape="151.45,598.35 291.95,598.35"/>
    </edge>
    <edge id="0to4" from="0" to="4" priority="-1">
        <lane id="0to4_0" index="0" speed="13.90" length="140.50" shape="145.05,591.95 145.05,451.45"/>
        <lane id="0to4_1" index="1" speed="13.90" length="140.50" shape="148.35,591.95 148.35,451.45"/>
    </edge>
    <edge id="10to11" from="10" to="11" priority="-1">
        <lane id="10to11_0" index="0" speed="13.90" length="140.50" shape="451.45,295.05 591.95,295.05"/>
        <lane id="10to11_1" index="1" speed="13.90" length="140.50" shape="451.45,298.35 591.95,298.35"/>
    </edge>
    <edge id="10to14" from="10" to="14" priority="-1">
        <lane id="10to14_0" index="0" speed="13.90" length="140.50" shape="445.05,291.95 445.05,151.45"/>
        <lane id="10to14_1" index="1" speed="13.90" length="140.50" shape="448.35,291.95 448.35,151.45"/>
    </edge>
    <edge id="11to15" from="11" to="15" priority="-1">
        <lane id="11to15_0" index="0" speed="13.90" length="140.50" shape="595.05,291.95 595.05,151.45"/>
        <lane id="11to15_1" index="1" speed="13.90" length="140.50" shape="598.35,291.95 598.35,151.45"/>
    </edge>
    <edge id="11to30" from="11" to="30" priority="-1">
        <lane id="11to30_0" index="0" speed="13.90" length="148.55" shape="601.45,295.05 750.00,295.05"/>
        <lane id="11to30_1" index="1" speed="13.90" length="148.55" shape="601.45,298.35 750.00,298.35"/>
    </edge>
    <edge id="12to13" from="12" to="13" priority="-1">
        <lane id="12to13_0" index="0" speed="13.90" length="140.50" shape="151.45,145.05 291.95,145.05"/>
        <lane id="12to13_1" index="1" speed="13.90" length="140.50" shape="151.45,148.35 291.95,148.35"/>
    </edge>
    <edge id="12to24" from="12" to="24" priority="-1">
        <lane id="12to24_0" index="0" speed="13.90" length="141.95" shape="145.05,141.95 145.05,0.00"/>
        <lane id="12to24_1" index="1" speed="13.90" length="141.95" shape="148.35,141.95 148.35,0.00"/>
    </edge>
    <edge id="13to14" from="13" to="14" priority="-1">
        <lane id="13to14_0" index="0" speed="13.90" length="140.50" shape="301.45,145.05 441.95,145.05"/>
        <lane id="13to14_1" index="1" speed="13.90" length="140.50" shape="301.45,148.35 441.95,148.35"/>
    </edge>
    <edge id="13to25" from="13" to="25" priority="-1">
        <lane id="13to25_0" index="0" speed="13.90" length="141.95" shape="295.05,141.95 295.05,0.00"/>
        <lane id="13to25_1" index="1" speed="13.90" length="141.95" shape="298.35,141.95 298.35,0.00"/>
    </edge>
    <edge id="14to15" from="14" to="15" priority="-1">
        <lane id="14to15_0" index="0" speed="13.90" length="140.50" shape="451.45,145.05 591.95,145.05"/>
        <lane id="14to15_1" index="1" speed="13.90" length="140.50" shape="451.45,148.35 591.95,148.35"/>
    </edge>
    <edge id="14to26" from="14" to="26" priority="-1">
        <lane id="14to26_0" index="0" speed="13.90" length="141.95" shape="445.05,141.95 445.05,0.00"/>
        <lane id="14to26_1" index="1" speed="13.90" length="141.95" shape="448.35,141.95 448.35,0.00"/>
    </edge>
    <edge id="15to27" from="15" to="27" priority="-1">
        <lane id="15to27_0" index="0" speed="13.90" length="141.95" shape="595.05,141.95 595.05,0.00"/>
        <lane id="15to27_1" index="1" speed="13.90" length="141.95" shape="598.35,141.95 598.35,0.00"/>
    </edge>
    <edge id="15to31" from="15" to="31" priority="-1">
        <lane id="15to31_0" index="0" speed="13.90" length="148.55" shape="601.45,145.05 750.00,145.05"/>
        <lane id="15to31_1" index="1" speed="13.90" length="148.55" shape="601.45,148.35 750.00,148.35"/>
    </edge>
    <edge id="16to0" from="16" to="0" priority="-1">
        <lane id="16to0_0" index="0" speed="13.90" length="148.55" shape="145.05,750.00 145.05,601.45"/>
        <lane id="16to0_1" index="1" speed="13.90" length="148.55" shape="148.35,750.00 148.35,601.45"/>
    </edge>
    <edge id="17to1" from="17" to="1" priority="-1">
        <lane id="17to1_0" index="0" speed="13.90" length="148.55" shape="295.05,750.00 295.05,601.45"/>
        <lane id="17to1_1" index="1" speed="13.90" length="148.55" shape="298.35,750.00 298.35,601.45"/>
    </edge>
    <edge id="18to2" from="18" to="2" priority="-1">
        <lane id="18to2_0" index="0" speed="13.90" length="148.55" shape="445.05,750.00 445.05,601.45"/>
        <lane id="18to2_1" index="1" speed="13.90" length="148.55" shape="448.35,750.00 448.35,601.45"/>
    </edge>
    <edge id="19to3" from="19" to="3" priority="-1">
        <lane id="19to3_0" index="0" speed="13.90" length="148.55" shape="595.05,750.00 595.05,601.45"/>
        <lane id="19to3_1" index="1" speed="13.90" length="148.55" shape="598.35,750.00 598.35,601.45"/>
    </edge>
    <edge id="1to2" from="1" to="2" priority="-1">
        <lane id="1to2_0" index="0" speed="13.90" length="140.50" shape="301.45,595.05 441.95,595.05"/>
        <lane id="1to2_1" index="1" speed="13.90" length="140.50" shape="301.45,598.35 441.95,598.35"/>
    </edge>
    <edge id="1to5" from="1" to="5" priority="-1">
        <lane id="1to5_0" index="0" speed="13.90" length="140.50" shape="295.05,591.95 295.05,451.45"/>
        <lane id="1to5_1" index="1" speed="13.90" length="140.50" shape="298.35,591.95 298.35,451.45"/>
    </edge>
    <edge id="20to0" from="20" to="0" priority="-1">
        <lane id="20to0_0" index="0" speed="13.90" length="141.95" shape="0.00,595.05 141.95,595.05"/>
        <lane id="20to0_1" index="1" speed="13.90" length="141.95" shape="0.00,598.35 141.95,598.35"/>
    </edge>
    <edge id="21to4" from="21" to="4" priority="-1">
        <lane id="21to4_0" index="0" speed="13.90" length="141.95" shape="0.00,445.05 141.95,445.05"/>
        <lane id="21to4_1" index="1" speed="13.90" length="141.95" shape="0.00,448.35 141.95,448.35"/>
    </edge>
    <edge id="22to8" from="22" to="8" priority="-1">
        <lane id="22to8_0" index="0" speed="13.90" length="141.95" shape="0.00,295.05 141.95,295.05"/>
        <lane id="22to8_1" index="1" speed="13.90" length="141.95" shape="0.00,298.35 141.95,298.35"/>
    </edge>
    <edge id="23to12" from="23" to="12" priority="-1">
        <lane id="23to12_0" index="0" speed="13.90" length="141.95" shape="0.00,145.05 141.95,145.05"/>
        <lane id="23to12_1" index="1" speed="13.90" length="141.95" shape="0.00,148.35 141.95,148.35"/>
    </edge>
    <edge id="2to3" from="2" to="3" priority="-1">
        <lane id="2to3_0" index="0" speed="13.90" length="140.50" shape="451.45,595.05 591.95,595.05"/>
        <lane id="2to3_1" index="1" speed="13.90" length="140.50" shape="451.45,598.35 591.95,598.35"/>
    </edge>
    <edge id="2to6" from="2" to="6" priority="-1">
        <lane id="2to6_0" index="0" speed="13.90" length="140.50" shape="445.05,591.95 445.05,451.45"/>
        <lane id="2to6_1" index="1" speed="13.90" length="140.50" shape="448.35,591.95 448.35,451.45"/>
    </edge>
    <edge id="3to28" from="3" to="28" priority="-1">
        <lane id="3to28_0" index="0" speed="13.90" length="148.55" shape="601.45,595.05 750.00,595.05"/>
        <lane id="3to28_1" index="1" speed="13.90" length="148.55" shape="601.45,598.35 750.00,598.35"/>
    </edge>
    <edge id="3to7" from="3" to="7" priority="-1">
        <lane id="3to7_0" index="0" speed="13.90" length="140.50" shape="595.05,591.95 595.05,451.45"/>
        <lane id="3to7_1" index="1" speed="13.90" length="140.50" shape="598.35,591.95 598.35,451.45"/>
    </edge>
    <edge id="4to5" from="4" to="5" priority="-1">
        <lane id="4to5_0" index="0" speed="13.90" length="140.50" shape="151.45,445.05 291.95,445.05"/>
        <lane id="4to5_1" index="1" speed="13.90" length="140.50" shape="151.45,448.35 291.95,448.35"/>
    </edge>
    <edge id="4to8" from="4" to="8" priority="-1">
        <lane id="4to8_0" index="0" speed="13.90" length="140.50" shape="145.05,441.95 145.05,301.45"/>
        <lane id="4to8_1" index="1" speed="13.90" length="140.50" shape="148.35,441.95 148.35,301.45"/>
    </edge>
    <edge id="5to6" from="5" to="6" priority="-1">
        <lane id="5to6_0" index="0" speed="13.90" length="140.50" shape="301.45,445.05 441.95,445.05"/>
        <lane id="5to6_1" index="1" speed="13.90" length="140.50" shape="301.45,448.35 441.95,448.35"/>
    </edge>
    <edge id="5to9" from="5" to="9" priority="-1">
        <lane id="5to9_0" index="0" speed="13.90" length="140.50" shape="295.05,441.95 295.05,301.45"/>
        <lane id="5to9_1" index="1" speed="13.90" length="140.50" shape="298.35,441.95 298.35,301.45"/>
    </edge>
    <edge id="6to10" from="6" to="10" priority="-1">
        <lane id="6to10_0" index="0" speed="13.90" length="140.50" shape="445.05,441.95 445.05,301.45"/>
        <lane id="6to10_1" index="1" speed="13.90" length="140.50" shape="448.35,441.95 448.35,301.45"/>
    </edge>
    <edge id="6to7" from="6" to="7" priority="-1">
        <lane id="6to7_0" index="0" speed="13.90" length="140.50" shape="451.45,445.05 591.95,445.05"/>
        <lane id="6to7_1" index="1" speed="13.90" length="140.50" shape="451.45,448.35 591.95,448.35"/>
    </edge>
    <edge id="7to11" from="7" to="11" priority="-1">
        <lane id="7to11_0" index="0" speed="13.90" length="140.50" shape="595.05,441.95 595.05,301.45"/>
        <lane id="7to11_1" index="1" speed="13.90" length="140.50" shape="598.35,441.95 598.35,301.45"/>
    </edge>
    <edge id="7to29" from="7" to="29" priority="-1">
        <lane id="7to29_0" index="0" speed="13.90" length="148.55" shape="601.45,445.05 750.00,445.05"/>
        <lane id="7to29_1" index="1" speed="13.90" length="148.55" shape="601.45,448.35 750.00,448.35"/>
    </edge>
    <edge id="8to12" from="8" to="12" priority="-1">
        <lane id="8to12_0" index="0" speed="13.90" length="140.50" shape="145.05,291.95 145.05,151.45"/>
        <lane id="8to12_1" index="1" speed="13.90" length="140.50" shape="148.35,291.95 148.35,151.45"/>
    </edge>
    <edge id="8to9" from="8" to="9" priority="-1">
        <lane id="8to9_0" index="0" speed="13.90" length="140.50" shape="151.45,295.05 291.95,295.05"/>
        <lane id="8to9_1" index="1" speed="13.90" length="140.50" shape="151.45,298.35 291.95,298.35"/>
    </edge>
    <edge id="9to10" from="9" to="10" priority="-1">
        <lane id="9to10_0" index="0" speed="13.90" length="140.50" shape="301.45,295.05 441.95,295.05"/>
        <lane id="9to10_1" index="1" speed="13.90" length="140.50" shape="301.45,298.35 441.95,298.35"/>
    </edge>
    <edge id="9to13" from="9" to="13" priority="-1">
        <lane id="9to13_0" index="0" speed="13.90" length="140.50" shape="295.05,291.95 295.05,151.45"/>
        <lane id="9to13_1" index="1" speed="13.90" length="140.50" shape="298.35,291.95 298.35,151.45"/>
    </edge>

    <tlLogic id="0" type="static" programID="0" offset="0">
        <phase duration="42" state="GGGrrr"/>
        <phase duration="2" state="yyyrrr"/>
        <phase duration="42" state="rrrGGG"/>
        <phase duration="2" state="rrryyy"/>
    </tlLogic>
    <tlLogic id="1" type="static" programID="0" offset="0">
        <phase duration="42" state="GGGrrr"/>
        <phase duration="2" state="yyyrrr"/>
        <phase duration="42" state="rrrGGG"/>
        <phase duration="2" state="rrryyy"/>
    </tlLogic>
    <tlLogic id="10" type="static" programID="0" offset="0">
        <phase duration="42" state="GGGrrr"/>
        <phase duration="2" state="yyyrrr"/>
        <phase duration="42" state="rrrGGG"/>
        <phase duration="2" state="rrryyy"/>
    </tlLogic>
    <tlLogic id="10" type="static" programID="1" offset="0">
        <phase duration="42" state="GGGrrr"/>
        <phase duration="3" state="yyyrrr"/>
        <phase duration="42" state="rrrGGG"/>
        <phase duration="3" state="rrryyy"/>
    </tlLogic>
    <tlLogic id="11" type="static" programID="0" offset="0">
        <phase duration="42" state="GGGrrr"/>
        <phase duration="2" state="yyyrrr"/>
        <phase duration="42" state="rrrGGG"/>
        <phase duration="2" state="rrryyy"/>
    </tlLogic>
    <tlLogic id="12" type="static" programID="0" offset="0">
        <phase duration="42" state="GGGrrr"/>
        <phase duration="2" state="yyyrrr"/>
        <phase duration="42" state="rrrGGG"/>
        <phase duration="2" state="rrryyy"/>
    </tlLogic>
    <tlLogic id="13" type="static" programID="0" offset="0">
        <phase duration="42" state="GGGrrr"/>
        <phase duration="2" state="yyyrrr"/>
        <phase duration="42" state="rrrGGG"/>
        <phase duration="2" state="rrryyy"/>
    </tlLogic>
    <tlLogic id="14" type="static" programID="0" offset="0">
        <phase duration="42" state="GGGrrr"/>
        <phase duration="2" state="yyyrrr"/>
        <phase duration="42" state="rrrGGG"/>
        <phase duration="2" state="rrryyy"/>
    </tlLogic>
    <tlLogic id="15" type="static" programID="0" offset="0">
        <phase duration="42" state="GGGrrr"/>
        <phase duration="2" state="yyyrrr"/>
        <phase duration="42" state="rrrGGG"/>
        <phase duration="2" state="rrryyy"/>
    </tlLogic>
    <tlLogic id="2" type="static" programID="0" offset="0">
        <phase duration="42" state="GGGrrr"/>
        <phase duration="2" state="yyyrrr"/>
        <phase duration="42" state="rrrGGG"/>
        <phase duration="2" state="rrryyy"/>
    </tlLogic>
    <tlLogic id="3" type="static" programID="0" offset="0">
        <phase duration="42" state="GGGrrr"/>
        <phase duration="2" state="yyyrrr"/>
        <phase duration="42" state="rrrGGG"/>
        <phase duration="2" state="rrryyy"/>
    </tlLogic>
    <tlLogic id="4" type="static" programID="0" offset="0">
        <phase duration="42" state="GGGrrr"/>
        <phase duration="2" state="yyyrrr"/>
        <phase duration="42" state="rrrGGG"/>
        <phase duration="2" state="rrryyy"/>
    </tlLogic>
    <tlLogic id="5" type="static" programID="0" offset="0">
        <phase duration="42" state="GGGrrr"/>
        <phase duration="2" state="yyyrrr"/>
        <phase duration="42" state="rrrGGG"/>
        <phase duration="2" state="rrryyy"/>
    </tlLogic>