<edges>
	<edge from="16" id="16to0" to="0" numLanes="2"/>
	<edge from="17" id="17to1" to="1" numLanes="2"/>
	<edge from="18" id="18to2" to="2" numLanes="2"/>
	<edge from="19" id="19to3" to="3" numLanes="2"/>

	<edge from="0" id="0to4" to="4" numLanes="2"/>
	<edge from="4" id="4to8" to="8" numLanes="2"/>
	<edge from="8" id="8to12" to="12" numLanes="2"/>
	<edge from="12" id="12to24" to="24" numLanes="2"/>

	<edge from="1" id="1to5" to="5" numLanes="2"/>
	<edge from="5" id="5to9" to="9" numLanes="2"/>
	<edge from="9" id="9to13" to="13" numLanes="2"/>
	<edge from="13" id="13to25" to="25" numLanes="2"/>

	<edge from="2" id="2to6" to="6" numLanes="2"/>
	<edge from="6" id="6to10" to="10" numLanes="2"/>
	<edge from="10" id="10to14" to="14" numLanes="2"/>
	<edge from="14" id="14to26" to="26" numLanes="2"/>

	<edge from="3" id="3to7" to="7" numLanes="2"/>
	<edge from="7" id="7to11" to="11" numLanes="2"/>
	<edge from="11" id="11to15" to="15" numLanes="2"/>
	<edge from="15" id="15to27" to="27" numLanes="2"/>

	<edge from="20" id="20to0" to="0" numLanes="2"/>
	<edge from="0" id="0to1" to="1" numLanes="2"/>
	<edge from="1" id="1to2" to="2" numLanes="2"/>
	<edge from="2" id="2to3" to="3" numLanes="2"/>
	<edge from="3" id="3to28" to="28" numLanes="2"/>

	<edge from="21" id="21to4" to="4" numLanes="2"/>
	<edge from="4" id="4to5" to="5" numLanes="2"/>
	<edge from="5" id="5to6" to="6" numLanes="2"/>
	<edge from="6" id="6to7" to="7" numLanes="2"/>
	<edge from="7" id="7to29" to="29" numLanes="2"/>

	<edge from="22" id="22to8" to="8" numLanes="2"/>
	<edge from="8" id="8to9" to="9" numLanes="2"/>
	<edge from="9" id="9to10" to="10" numLanes="2"/>
	<edge from="10" id="10to11" to="11" numLanes="2"/>
	<edge from="11" id="11to30" to="30" numLanes="2"/>

	<edge from="23" id="23to12" to="12" numLanes="2"/>
	<edge from="12" id="12to13" to="13" numLanes="2"/>
	<edge from="13" id="13to14" to="14" numLanes="2"/>
	<edge from="14" id="14to15" to="15" numLanes="2"/>
	<edge from="15" id="15to31" to="31" numLanes="2"/>
</edges>
