<?xml version="1.0" encoding="UTF-8"?>
<nodes xmlns:xsi="http://www.w3.org/2001/XMLSchema-instance"
 xsi:noNamespaceSchemaLocation="http://sumo.sf.net/xsd/nodes_file.xsd">
   <node id="A" x="0.0" y="0.0" />
   <node id="B" x="100.0" y="0.0" />
   <node id="C" x="0.0" y="100.0" />
   <node id="D" x="100.0" y="100.0" />
</nodes>
