<routes>

    <vehicle id="蓝浙D599R7_19983" type="standard_car" route="SN" depart="51189.863" departLane="random" departSpeed="20" />
    <vehicle id="蓝皖HT0440_19984" type="standard_car" route="SW" depart="51189.183" departLane="random" departSpeed="20" />
    <vehicle id="绿皖ND63220_19985" type="standard_car" route="NS" depart="51189.892" departLane="random" departSpeed="20" />
    <vehicle id="蓝皖HP36F7_19986" type="standard_car" route="SN" depart="51193.012" departLane="random" departSpeed="20" />
    <vehicle id="蓝皖A020KV_19987" type="standard_car" route="SW" depart="51192.992" departLane="random" departSpeed="20" />
    <vehicle id="蓝皖GD6067_19988" type="standard_car" route="NS" depart="51194.255" departLane="random" departSpeed="20" />
    <vehicle id="蓝皖HRZ223_19989" type="standard_car" route="SW" depart="51195.501" departLane="random" departSpeed="20" />
    <vehicle id="蓝皖H82S55_19990" type="standard_car" route="WN" depart="51197.813" departLane="random" departSpeed="20" />
    <vehicle id="蓝皖HEE518_19991" type="standard_car" route="SN" depart="51200.158" departLane="random" departSpeed="20" />
    <vehicle id="黄皖KM6685_19992" type="standard_car" route="NS" depart="51203.239" departLane="random" departSpeed="20" />
    <vehicle id="蓝皖AH62T9_19993" type="standard_car" route="NS" depart="51206.946" departLane="random" departSpeed="20" />
    <vehicle id="蓝皖HDW921_19994" type="standard_car" route="WN" depart="51208.316" departLane="random" departSpeed="20" />
    <vehicle id="蓝皖HY0117_19995" type="standard_car" route="WE" depart="51210.097" departLane="random" departSpeed="20" />
    <vehicle id="蓝皖HJ1020_19996" type="standard_car" route="NS" depart="51210.973" departLane="random" departSpeed="20" />
    <vehicle id="绿皖HD15180_19997" type="standard_car" route="WE" depart="51211.836" departLane="random" departSpeed="20" />
    <vehicle id="绿皖HDC2057_19998" type="standard_car" route="WE" depart="51213.604" departLane="random" departSpeed="20" />
    <vehicle id="蓝皖HR7062_19999" type="standard_car" route="SW" depart="51213.368" departLane="random" departSpeed="20" />
    <vehicle id="蓝皖HFH007_20000" type="standard_car" route="SW" depart="51214.537" departLane="random" departSpeed="20" />
    <vehicle id="蓝皖HT8783_20001" type="standard_car" route="WE" depart="51215.733" departLane="random" departSpeed="20" />
    <vehicle id="蓝皖HA6568_20002" type="standard_car" route="NS" depart="51215.739" departLane="random" departSpeed="20" />
    <vehicle id="蓝皖HLJ587_20003" type="standard_car" route="SW" depart="51216.815" departLane="random" departSpeed="20" />
    <vehicle id="蓝皖HL0952_20004" type="standard_car" route="NS" depart="51217.836" departLane="random" departSpeed="20" />
    <vehicle id="蓝皖HXA797_20005" type="standard_car" route="WE" depart="51219.281" departLane="random" departSpeed="20" />
    <vehicle id="蓝浙B3Y5N0_20006" type="standard_car" route="WE" depart="51220.098" departLane="random" departSpeed="20" />
    <vehicle id="蓝皖B610X2_20007" type="standard_car" route="SW" depart="51219.743" departLane="random" departSpeed="20" />
    <vehicle id="蓝皖H67U30_20008" type="standard_car" route="WE" depart="51222.519" departLane="random" departSpeed="20" />
    <vehicle id="蓝皖H0P450_20009" type="standard_car" route="SW" depart="51221.942" departLane="random" departSpeed="20" />
    <vehicle id="无车牌_20010" type="standard_car" route="EW" depart="51224.326" departLane="random" departSpeed="20" />
    <vehicle id="蓝皖H15G64_20011" type="standard_car" route="NS" depart="51223.446" departLane="random" departSpeed="20" />
    <vehicle id="绿皖HDG7688_20012" type="standard_car" route="SW" depart="51224.692" departLane="random" departSpeed="20" />
    <vehicle id="蓝皖HSY607_20013" type="standard_car" route="WN" depart="51226.074" departLane="random" departSpeed="20" />
    <vehicle id="蓝皖HD4346_20014" type="standard_car" route="NS" depart="51226.524" departLane="random" departSpeed="20" />
    <vehicle id="蓝皖HH979D_20015" type="standard_car" route="ES" depart="51228.24" departLane="random" departSpeed="20" />
    <vehicle id="绿皖HD59725_20016" type="standard_car" route="WN" depart="51228.723" departLane="random" departSpeed="20" />
    <vehicle id="蓝皖H03BH0_20017" type="standard_car" route="WE" depart="51228.895" departLane="random" departSpeed="20" />
    <vehicle id="蓝皖L7A009_20018" type="standard_car" route="SW" depart="51228.239" departLane="random" departSpeed="20" />
    <vehicle id="蓝皖HU878U_20019" type="standard_car" route="WN" depart="51230.042" departLane="random" departSpeed="20" />
    <vehicle id="蓝贵FEM532_20020" type="standard_car" route="ES" depart="51230.349" departLane="random" departSpeed="20" />
    <vehicle id="蓝皖HT9935_20021" type="standard_car" route="WE" depart="51231.234" departLane="random" departSpeed="20" />
    <vehicle id="黄皖H36766_20022" type="standard_car" route="WE" depart="51234.149" departLane="random" departSpeed="20" />
    <vehicle id="蓝皖H67CC9_20023" type="standard_car" route="WE" depart="51234.202" departLane="random" departSpeed="20" />
    <vehicle id="蓝皖H81S27_20024" type="standard_car" route="SW" depart="51233.866" departLane="random" departSpeed="20" />
    <vehicle id="蓝皖RJ3110_20025" type="standard_car" route="WE" depart="51235.681" departLane="random" departSpeed="20" />
    <vehicle id="蓝皖HC779F_20026" type="standard_car" route="SW" depart="51236.874" departLane="random" departSpeed="20" />
    <vehicle id="蓝皖HT1649_20027" type="standard_car" route="WE" depart="51238.45" departLane="random" departSpeed="20" />
    <vehicle id="蓝皖HM9227_20028" type="standard_car" route="EW" depart="51239.175" departLane="random" departSpeed="20" />
    <vehicle id="蓝皖H29587_20029" type="standard_car" route="WE" depart="51241.459" departLane="random" departSpeed="20" />
    <vehicle id="绿皖HD16653_20030" type="standard_car" route="ES" depart="51244.324" departLane="random" departSpeed="20" />
    <vehicle id="蓝皖HDS339_20031" type="standard_car" route="WE" depart="51244.848" departLane="random" departSpeed="20" />
    <vehicle id="绿皖HD04080_20032" type="standard_car" route="SW" depart="51245.812" departLane="random" departSpeed="20" />
    <vehicle id="蓝皖H51Q81_20033" type="standard_car" route="EW" depart="51247.312" departLane="random" departSpeed="20" />
    <vehicle id="蓝皖H75J82_20034" type="standard_car" route="SW" depart="51246.686" departLane="random" departSpeed="20" />
    <vehicle id="蓝皖H5M769_20035" type="standard_car" route="WE" depart="51248.177" departLane="random" departSpeed="20" />
    <vehicle id="绿渝AF09525_20036" type="standard_car" route="WN" depart="51251.533" departLane="random" departSpeed="20" />
    <vehicle id="蓝皖H7G658_20037" type="standard_car" route="SN" depart="51252.859" departLane="random" departSpeed="20" />
    <vehicle id="蓝皖HCH900_20038" type="standard_car" route="EW" depart="51252.141" departLane="random" departSpeed="20" />
    <vehicle id="黄皖H50807_20039" type="standard_car" route="WE" depart="51252.762" departLane="random" departSpeed="20" />
    <vehicle id="蓝皖HF729T_20040" type="standard_car" route="SW" depart="51252.709" departLane="random" departSpeed="20" />
    <vehicle id="黄皖H28963_20041" type="standard_car" route="EW" depart="51258.141" departLane="random" departSpeed="20" />
    <vehicle id="蓝皖R76929_20042" type="standard_car" route="SN" depart="51257.886" departLane="random" departSpeed="20" />
    <vehicle id="蓝皖H96FD6_20043" type="standard_car" route="SW" depart="51259.736" departLane="random" departSpeed="20" />
    <vehicle id="蓝皖HB7572_20044" type="standard_car" route="EW" depart="51260.727" departLane="random" departSpeed="20" />
    <vehicle id="蓝皖HMM186_20045" type="standard_car" route="SW" depart="51260.386" departLane="random" departSpeed="20" />
    <vehicle id="蓝皖HM2720_20046" type="standard_car" route="WE" depart="51262.452" departLane="random" departSpeed="20" />
    <vehicle id="绿皖HD53191_20047" type="standard_car" route="WN" depart="51264.148" departLane="random" departSpeed="20" />
    <vehicle id="蓝皖H55389_20048" type="standard_car" route="SN" depart="51264.815" departLane="random" departSpeed="20" />
    <vehicle id="黄皖H83222_20049" type="standard_car" route="EW" depart="51264.566" departLane="random" departSpeed="20" />
    <vehicle id="绿皖HD50831_20050" type="standard_car" route="SW" depart="51264.295" departLane="random" departSpeed="20" />
    <vehicle id="蓝皖H2Y337_20051" type="standard_car" route="NS" depart="51267.659" departLane="random" departSpeed="20" />
    <vehicle id="蓝皖H2X585_20052" type="standard_car" route="ES" depart="51267.886" departLane="random" departSpeed="20" />
    <vehicle id="蓝皖HS78Y1_20053" type="standard_car" route="EW" depart="51268.346" departLane="random" departSpeed="20" />
    <vehicle id="蓝皖HT6226_20054" type="standard_car" route="NS" depart="51269.348" departLane="random" departSpeed="20" />
    <vehicle id="蓝皖HT0558_20055" type="standard_car" route="NS" depart="51269.198" departLane="random" departSpeed="20" />
    <vehicle id="蓝皖HB6933_20056" type="standard_car" route="WE" depart="51270.633" departLane="random" departSpeed="20" />
    <vehicle id="蓝皖H37X15_20057" type="standard_car" route="NS" depart="51272.258" departLane="random" departSpeed="20" />
    <vehicle id="绿皖HD34386_20058" type="standard_car" route="EW" depart="51273.136" departLane="random" departSpeed="20" />
    <vehicle id="蓝沪CEC677_20059" type="standard_car" route="SW" depart="51294.467" departLane="random" departSpeed="20" />
    <vehicle id="蓝皖H6D809_20060" type="standard_car" route="SW" depart="51294.54" departLane="random" departSpeed="20" />
    <vehicle id="绿皖HD07122_20061" type="standard_car" route="NS" depart="51302.756" departLane="random" departSpeed="20" />
    <vehicle id="蓝皖H7T609_20062" type="standard_car" route="NS" depart="51311.191" departLane="random" departSpeed="20" />
    <vehicle id="蓝皖H68AC8_20063" type="standard_car" route="SN" depart="51313.257" departLane="random" departSpeed="20" />
    <vehicle id="蓝皖HKX002_20064" type="standard_car" route="NS" depart="51314.262" departLane="random" departSpeed="20" />
    <vehicle id="绿皖HF60550_20065" type="standard_car" route="SN" depart="51316.338" departLane="random" departSpeed="20" />
    <vehicle id="绿皖HDC9730_20066" type="standard_car" route="NE" depart="51317.673" departLane="random" departSpeed="20" />
    <vehicle id="蓝沪C60K90_20067" type="standard_car" route="NS" depart="51317.764" departLane="random" departSpeed="20" />
    <vehicle id="蓝皖H0A655_20068" type="standard_car" route="NS" depart="51318.614" departLane="random" departSpeed="20" />
    <vehicle id="蓝皖AM955C_20069" type="standard_car" route="SN" depart="51320.21" departLane="random" departSpeed="20" />
    <vehicle id="蓝皖HSY082_20070" type="standard_car" route="EW" depart="51323.903" departLane="random" departSpeed="20" />
    <vehicle id="蓝皖HS81V8_20071" type="standard_car" route="NS" depart="51326.007" departLane="random" departSpeed="20" />
    <vehicle id="蓝皖AA731Z_20072" type="standard_car" route="SN" depart="51327.764" departLane="random" departSpeed="20" />
    <vehicle id="蓝皖HCX560_20073" type="standard_car" route="EW" depart="51327.834" departLane="random" departSpeed="20" />
    <vehicle id="蓝皖HQ5650_20074" type="standard_car" route="SW" depart="51328.224" departLane="random" departSpeed="20" />
    <vehicle id="蓝皖HWJ307_20075" type="standard_car" route="WE" depart="51329.957" departLane="random" departSpeed="20" />
    <vehicle id="蓝皖H23X75_20076" type="standard_car" route="WE" depart="51332.842" departLane="random" departSpeed="20" />
    <vehicle id="无车牌_20077" type="standard_car" route="EW" depart="51335.217" departLane="random" departSpeed="20" />
    <vehicle id="蓝皖HE5919_20078" type="standard_car" route="NS" depart="51334.44" departLane="random" departSpeed="20" />
    <vehicle id="蓝皖HY717H_20079" type="standard_car" route="EW" depart="51335.707" departLane="random" departSpeed="20" />
    <vehicle id="蓝皖H3V213_20080" type="standard_car" route="SN" depart="51339.557" departLane="random" departSpeed="20" />
    <vehicle id="黄皖HA0573_20081" type="standard_car" route="WE" depart="51341.115" departLane="random" departSpeed="20" />
    <vehicle id="无车牌_20082" type="standard_car" route="NS" depart="51345.754" departLane="random" departSpeed="20" />
    <vehicle id="蓝皖HC3666_20083" type="standard_car" route="WN" depart="51347.685" departLane="random" departSpeed="20" />
    <vehicle id="蓝皖HM0624_20084" type="standard_car" route="SN" depart="51349.464" departLane="random" departSpeed="20" />
    <vehicle id="蓝皖A6V915_20085" type="standard_car" route="WE" depart="51350.35" departLane="random" departSpeed="20" />
    <vehicle id="蓝皖H89N38_20086" type="standard_car" route="EW" depart="51351.016" departLane="random" departSpeed="20" />
    <vehicle id="蓝皖H9Y756_20087" type="standard_car" route="SN" depart="51354.537" departLane="random" departSpeed="20" />
    <vehicle id="蓝皖HA7647_20088" type="standard_car" route="NS" depart="51356.403" departLane="random" departSpeed="20" />
    <vehicle id="蓝皖HM6767_20089" type="standard_car" route="SN" depart="51358.239" departLane="random" departSpeed="20" />
    <vehicle id="蓝皖HT8650_20090" type="standard_car" route="SW" depart="51357.129" departLane="random" departSpeed="20" />
    <vehicle id="蓝皖HV18U9_20091" type="standard_car" route="SW" depart="51358.46" departLane="random" departSpeed="20" />
    <vehicle id="蓝皖HT98N3_20092" type="standard_car" route="WE" depart="51359.527" departLane="random" departSpeed="20" />
    <vehicle id="黄鲁EF6503_20093" type="standard_car" route="EW" depart="51360.733" departLane="random" departSpeed="20" />
    <vehicle id="绿皖HD31171_20094" type="standard_car" route="SN" depart="51359.801" departLane="random" departSpeed="20" />
    <vehicle id="蓝皖RX1036_20095" type="standard_car" route="WE" depart="51361.018" departLane="random" departSpeed="20" />
    <vehicle id="绿皖HDC7755_20096" type="standard_car" route="SW" depart="51359.861" departLane="random" departSpeed="20" />
    <vehicle id="绿沪AE93639_20097" type="standard_car" route="SW" depart="51361.102" departLane="random" departSpeed="20" />
    <vehicle id="蓝皖GC5418_20098" type="standard_car" route="WE" depart="51364.011" departLane="random" departSpeed="20" />
    <vehicle id="无车牌_20099" type="standard_car" route="SW" depart="51365.134" departLane="random" departSpeed="20" />
    <vehicle id="蓝皖H84CB8_20100" type="standard_car" route="NS" depart="51365.809" departLane="random" departSpeed="20" />
    <vehicle id="蓝苏D605S0_20101" type="standard_car" route="SW" depart="51368.046" departLane="random" departSpeed="20" />
    <vehicle id="蓝皖HMC306_20102" type="standard_car" route="SN" depart="51373.018" departLane="random" departSpeed="20" />
    <vehicle id="无车牌_20103" type="standard_car" route="SW" depart="51372.488" departLane="random" departSpeed="20" />
    <vehicle id="蓝皖H8Z305_20104" type="standard_car" route="SW" depart="51374.209" departLane="random" departSpeed="20" />
    <vehicle id="蓝皖C67812_20105" type="standard_car" route="SW" depart="51375.36" departLane="random" departSpeed="20" />
    <vehicle id="蓝皖H38V26_20106" type="standard_car" route="SN" depart="51375.73" departLane="random" departSpeed="20" />
    <vehicle id="蓝皖HS57N1_20107" type="standard_car" route="NS" depart="51380.897" departLane="random" departSpeed="20" />
    <vehicle id="蓝皖HC520B_20108" type="standard_car" route="SW" depart="51386.006" departLane="random" departSpeed="20" />
    <vehicle id="蓝苏BJN982_20109" type="standard_car" route="NS" depart="51388.532" departLane="random" departSpeed="20" />
    <vehicle id="蓝皖HB5965_20110" type="standard_car" route="SW" depart="51390.698" departLane="random" departSpeed="20" />
    <vehicle id="绿皖HD95354_20111" type="standard_car" route="NS" depart="51391.283" departLane="random" departSpeed="20" />
    <vehicle id="蓝皖H98Y29_20112" type="standard_car" route="WE" depart="51393.096" departLane="random" departSpeed="20" />
    <vehicle id="蓝皖JY6987_20113" type="standard_car" route="SW" depart="51393.129" departLane="random" departSpeed="20" />
    <vehicle id="绿皖HD86105_20114" type="standard_car" route="NS" depart="51396.515" departLane="random" departSpeed="20" />
    <vehicle id="蓝皖HD7240_20115" type="standard_car" route="WE" depart="51400.499" departLane="random" departSpeed="20" />
    <vehicle id="蓝皖HST768_20116" type="standard_car" route="NS" depart="51400.855" departLane="random" departSpeed="20" />
    <vehicle id="蓝皖HX02X6_20117" type="standard_car" route="SW" depart="51400.921" departLane="random" departSpeed="20" />
    <vehicle id="绿皖HDC6166_20118" type="standard_car" route="NS" depart="51402.306" departLane="random" departSpeed="20" />
    <vehicle id="蓝皖HKK654_20119" type="standard_car" route="WN" depart="51404.817" departLane="random" departSpeed="20" />
    <vehicle id="黄皖HB3396_20120" type="standard_car" route="WE" depart="51406.246" departLane="random" departSpeed="20" />
    <vehicle id="无车牌_20121" type="standard_car" route="WE" depart="51409.705" departLane="random" departSpeed="20" />
    <vehicle id="无车牌_20122" type="standard_car" route="WE" depart="51409.479" departLane="random" departSpeed="20" />
    <vehicle id="蓝皖H5U988_20123" type="standard_car" route="EW" depart="51410.402" departLane="random" departSpeed="20" />
    <vehicle id="绿皖HD00617_20124" type="standard_car" route="NS" depart="51412.994" departLane="random" departSpeed="20" />
    <vehicle id="黄皖G01029_20125" type="standard_car" route="WE" depart="51414.937" departLane="random" departSpeed="20" />
    <vehicle id="蓝皖GS1695_20126" type="standard_car" route="NE" depart="51415.464" departLane="random" departSpeed="20" />
    <vehicle id="蓝皖HX0579_20127" type="standard_car" route="EW" depart="51418.091" departLane="random" departSpeed="20" />
    <vehicle id="绿皖HD11357_20128" type="standard_car" route="NS" depart="51416.972" departLane="random" departSpeed="20" />
    <vehicle id="蓝皖A5RQ73_20129" type="standard_car" route="EW" depart="51418.881" departLane="random" departSpeed="20" />
    <vehicle id="蓝皖H82S72_20130" type="standard_car" route="ES" depart="51420.748" departLane="random" departSpeed="20" />
    <vehicle id="黄晋B66606_20131" type="standard_car" route="WE" depart="51420.655" departLane="random" departSpeed="20" />
    <vehicle id="蓝皖H988D6_20132" type="standard_car" route="SW" depart="51420.227" departLane="random" departSpeed="20" />
    <vehicle id="蓝川A637UA_20133" type="standard_car" route="WN" depart="51421.972" departLane="random" departSpeed="20" />
    <vehicle id="蓝皖H9A848_20134" type="standard_car" route="EW" depart="51422.458" departLane="random" departSpeed="20" />
    <vehicle id="蓝皖GGV095_20135" type="standard_car" route="EW" depart="51424.838" departLane="random" departSpeed="20" />
    <vehicle id="蓝浙KY8721_20136" type="standard_car" route="ES" depart="51425.456" departLane="random" departSpeed="20" />
    <vehicle id="蓝皖H068C3_20137" type="standard_car" route="EW" depart="51428.135" departLane="random" departSpeed="20" />
    <vehicle id="蓝皖H96DA9_20138" type="standard_car" route="EW" depart="51428.947" departLane="random" departSpeed="20" />
    <vehicle id="蓝皖H00CS3_20139" type="standard_car" route="ES" depart="51429.124" departLane="random" departSpeed="20" />
    <vehicle id="蓝皖HT1063_20140" type="standard_car" route="SN" depart="51431.532" departLane="random" departSpeed="20" />
    <vehicle id="蓝皖H37X19_20141" type="standard_car" route="WN" depart="51432.316" departLane="random" departSpeed="20" />
    <vehicle id="绿皖HF79306_20142" type="standard_car" route="SN" depart="51435.319" departLane="random" departSpeed="20" />
    <vehicle id="蓝皖H93BR6_20143" type="standard_car" route="EW" depart="51435.73" departLane="random" departSpeed="20" />
    <vehicle id="蓝皖HJ328S_20144" type="standard_car" route="EW" depart="51437.391" departLane="random" departSpeed="20" />
    <vehicle id="蓝皖H85F56_20145" type="standard_car" route="WE" depart="51437.574" departLane="random" departSpeed="20" />
    <vehicle id="蓝皖H85F56_20146" type="standard_car" route="WN" depart="51440.021" departLane="random" departSpeed="20" />
    <vehicle id="绿皖HD52822_20147" type="standard_car" route="WE" depart="51445.869" departLane="random" departSpeed="20" />
    <vehicle id="蓝皖H31X53_20148" type="standard_car" route="WE" depart="51447.457" departLane="random" departSpeed="20" />
    <vehicle id="绿皖AD13319_20149" type="standard_car" route="EW" depart="51451.042" departLane="random" departSpeed="20" />
    <vehicle id="蓝皖HA88D6_20150" type="standard_car" route="NS" depart="51452.582" departLane="random" departSpeed="20" />
    <vehicle id="绿皖HD15812_20151" type="standard_car" route="SW" depart="51455.196" departLane="random" departSpeed="20" />
    <vehicle id="绿皖HDA1068_20152" type="standard_car" route="WE" depart="51457.492" departLane="random" departSpeed="20" />
    <vehicle id="无车牌_20153" type="standard_car" route="NS" depart="51461.558" departLane="random" departSpeed="20" />
    <vehicle id="蓝皖H27Z11_20154" type="standard_car" route="EW" depart="51463.505" departLane="random" departSpeed="20" />
    <vehicle id="蓝皖HF988W_20155" type="standard_car" route="WE" depart="51462.841" departLane="random" departSpeed="20" />
    <vehicle id="蓝皖H92U81_20156" type="standard_car" route="WN" depart="51464.359" departLane="random" departSpeed="20" />
    <vehicle id="蓝皖HT1060_20157" type="standard_car" route="NS" depart="51464.458" departLane="random" departSpeed="20" />
    <vehicle id="绿皖HDD9956_20158" type="standard_car" route="WE" depart="51464.77" departLane="random" departSpeed="20" />
    <vehicle id="蓝皖HFS816_20159" type="standard_car" route="EW" depart="51465.437" departLane="random" departSpeed="20" />
    <vehicle id="蓝皖HW881Y_20160" type="standard_car" route="SW" depart="51464.744" departLane="random" departSpeed="20" />
    <vehicle id="蓝皖H02T56_20161" type="standard_car" route="SN" depart="51466.695" departLane="random" departSpeed="20" />
    <vehicle id="蓝皖H77DE6_20162" type="standard_car" route="NS" depart="51465.207" departLane="random" departSpeed="20" />
    <vehicle id="蓝皖H80C29_20163" type="standard_car" route="NS" depart="51465.537" departLane="random" departSpeed="20" />
    <vehicle id="蓝皖H7Q892_20164" type="standard_car" route="WE" depart="51467.38" departLane="random" departSpeed="20" />
    <vehicle id="蓝皖H33Y30_20165" type="standard_car" route="WN" depart="51468.968" departLane="random" departSpeed="20" />
    <vehicle id="黄皖H35880_20166" type="standard_car" route="EW" depart="51469.467" departLane="random" departSpeed="20" />
    <vehicle id="蓝豫QX3028_20167" type="standard_car" route="WE" depart="51469.89" departLane="random" departSpeed="20" />
    <vehicle id="蓝皖HJX411_20168" type="standard_car" route="SW" depart="51470.003" departLane="random" departSpeed="20" />
    <vehicle id="蓝皖HU3970_20169" type="standard_car" route="NE" depart="51471.267" departLane="random" departSpeed="20" />
    <vehicle id="绿皖HF94782_20170" type="standard_car" route="SW" depart="51470.589" departLane="random" departSpeed="20" />
    <vehicle id="蓝皖HQ9883_20171" type="standard_car" route="SN" depart="51471.383" departLane="random" departSpeed="20" />
    <vehicle id="蓝皖HQ1086_20172" type="standard_car" route="ES" depart="51473.214" departLane="random" departSpeed="20" />
    <vehicle id="蓝皖HAL017_20173" type="standard_car" route="NS" depart="51472.247" departLane="random" departSpeed="20" />
    <vehicle id="蓝皖HST009_20174" type="standard_car" route="WN" depart="51473.422" departLane="random" departSpeed="20" />
    <vehicle id="蓝苏C930T8_20175" type="standard_car" route="WE" depart="51473.929" departLane="random" departSpeed="20" />
    <vehicle id="蓝皖HH66Y9_20176" type="standard_car" route="WE" depart="51476.512" departLane="random" departSpeed="20" />
    <vehicle id="蓝皖S3D813_20177" type="standard_car" route="SW" depart="51476.313" departLane="random" departSpeed="20" />
    <vehicle id="蓝皖H7Q765_20178" type="standard_car" route="WE" depart="51476.909" departLane="random" departSpeed="20" />
    <vehicle id="绿苏CDD6627_20179" type="standard_car" route="WE" depart="51478.403" departLane="random" departSpeed="20" />
    <vehicle id="蓝皖H37811_20180" type="standard_car" route="SW" depart="51480.443" departLane="random" departSpeed="20" />
    <vehicle id="蓝皖HAA090_20181" type="standard_car" route="SW" depart="51484.297" departLane="random" departSpeed="20" />
    <vehicle id="蓝皖H8D798_20182" type="standard_car" route="SW" depart="51486.737" departLane="random" departSpeed="20" />
    <vehicle id="无车牌_20183" type="standard_car" route="NS" depart="51487.069" departLane="random" departSpeed="20" />
    <vehicle id="蓝皖AGU561_20184" type="standard_car" route="WE" depart="51487.351" departLane="random" departSpeed="20" />
    <vehicle id="蓝皖HA8120_20185" type="standard_car" route="WE" depart="51489.302" departLane="random" departSpeed="20" />
    <vehicle id="蓝皖H19M50_20186" type="standard_car" route="ES" depart="51490.526" departLane="random" departSpeed="20" />
    <vehicle id="蓝皖H0D882_20187" type="standard_car" route="WN" depart="51489.954" departLane="random" departSpeed="20" />
    <vehicle id="蓝皖HA4839_20188" type="standard_car" route="SW" depart="51489.907" departLane="random" departSpeed="20" />
    <vehicle id="蓝皖HQ5581_20189" type="standard_car" route="SW" depart="51491.157" departLane="random" departSpeed="20" />
    <vehicle id="蓝皖H16375_20190" type="standard_car" route="WE" depart="51495.425" departLane="random" departSpeed="20" />
    <vehicle id="蓝皖A36L59_20191" type="standard_car" route="SW" depart="51495.357" departLane="random" departSpeed="20" />
    <vehicle id="蓝皖HR02V2_20192" type="standard_car" route="WE" depart="51500.873" departLane="random" departSpeed="20" />
    <vehicle id="蓝皖H7E556_20193" type="standard_car" route="SW" depart="51501.258" departLane="random" departSpeed="20" />
    <vehicle id="蓝皖HN66Y7_20194" type="standard_car" route="WE" depart="51500.945" departLane="random" departSpeed="20" />
    <vehicle id="蓝皖HJ458H_20195" type="standard_car" route="WE" depart="51508.863" departLane="random" departSpeed="20" />
    <vehicle id="蓝皖HF5181_20196" type="standard_car" route="EW" depart="51510.79" departLane="random" departSpeed="20" />
    <vehicle id="绿皖HD25912_20197" type="standard_car" route="EW" depart="51516.477" departLane="random" departSpeed="20" />
    <vehicle id="蓝皖H6P688_20198" type="standard_car" route="EW" depart="51518.746" departLane="random" departSpeed="20" />
    <vehicle id="无车牌_20199" type="standard_car" route="NS" depart="51518.345" departLane="random" departSpeed="20" />
    <vehicle id="蓝鄂B3H003_20200" type="standard_car" route="SN" depart="51520.901" departLane="random" departSpeed="20" />
    <vehicle id="蓝皖H14280_20201" type="standard_car" route="EW" depart="51521.655" departLane="random" departSpeed="20" />
    <vehicle id="蓝皖H8Q560_20202" type="standard_car" route="EW" depart="51521.537" departLane="random" departSpeed="20" />
    <vehicle id="绿皖HDG7629_20203" type="standard_car" route="NS" depart="51521.893" departLane="random" departSpeed="20" />
    <vehicle id="蓝皖HL83L5_20204" type="standard_car" route="SW" depart="51522.385" departLane="random" departSpeed="20" />
    <vehicle id="蓝皖HT71M6_20205" type="standard_car" route="EW" depart="51524.925" departLane="random" departSpeed="20" />
    <vehicle id="蓝皖H98946_20206" type="standard_car" route="NS" depart="51526.823" departLane="random" departSpeed="20" />
    <vehicle id="绿皖HF68521_20207" type="standard_car" route="EW" depart="51528.479" departLane="random" departSpeed="20" />
    <vehicle id="蓝皖H18X78_20208" type="standard_car" route="WE" depart="51529.207" departLane="random" departSpeed="20" />
    <vehicle id="蓝皖HT0379_20209" type="standard_car" route="SW" depart="51529.939" departLane="random" departSpeed="20" />
    <vehicle id="绿皖AA16391_20210" type="standard_car" route="EW" depart="51530.334" departLane="random" departSpeed="20" />
    <vehicle id="蓝皖HWX444_20211" type="standard_car" route="NS" depart="51530.557" departLane="random" departSpeed="20" />
    <vehicle id="蓝皖H86356_20212" type="standard_car" route="NE" depart="51532.78" departLane="random" departSpeed="20" />
    <vehicle id="无车牌_20213" type="standard_car" route="EW" depart="51534.271" departLane="random" departSpeed="20" />
    <vehicle id="蓝皖HE0158_20214" type="standard_car" route="SW" depart="51534.696" departLane="random" departSpeed="20" />
    <vehicle id="绿皖HD10900_20215" type="standard_car" route="SW" depart="51536.658" departLane="random" departSpeed="20" />
    <vehicle id="蓝皖H50L76_20216" type="standard_car" route="SW" depart="51538.605" departLane="random" departSpeed="20" />
    <vehicle id="黄皖M1B539_20217" type="standard_car" route="NS" depart="51543.38" departLane="random" departSpeed="20" />
    <vehicle id="蓝皖B12L35_20218" type="standard_car" route="SW" depart="51546.091" departLane="random" departSpeed="20" />
    <vehicle id="蓝皖R42007_20219" type="standard_car" route="ES" depart="51547.07" departLane="random" departSpeed="20" />
    <vehicle id="蓝皖HA7268_20220" type="standard_car" route="EW" depart="51547.335" departLane="random" departSpeed="20" />
    <vehicle id="蓝皖H09AK1_20221" type="standard_car" route="SW" depart="51552.28" departLane="random" departSpeed="20" />
    <vehicle id="黄皖H32830_20222" type="standard_car" route="WN" depart="51559.475" departLane="random" departSpeed="20" />
    <vehicle id="蓝皖HWJ223_20223" type="standard_car" route="NS" depart="51561.611" departLane="random" departSpeed="20" />
    <vehicle id="蓝闽AF2G73_20224" type="standard_car" route="SN" depart="51563.23" departLane="random" departSpeed="20" />
    <vehicle id="蓝皖HY70F3_20225" type="standard_car" route="NS" depart="51567.659" departLane="random" departSpeed="20" />
    <vehicle id="绿皖HD87659_20226" type="standard_car" route="WE" depart="51568.306" departLane="random" departSpeed="20" />