<routes>
    <vehicle id="蓝皖H70N65_0" type="standard_car" route="SW" depart="0.0" departLane="random" departSpeed="20" />
    <vehicle id="蓝皖H9A688_1" type="standard_car" route="SN" depart="28.49" departLane="random" departSpeed="20" />
    <vehicle id="绿皖HD00120_2" type="standard_car" route="EW" depart="29.073" departLane="random" departSpeed="20" />
    <vehicle id="蓝皖HT0292_3" type="standard_car" route="ES" depart="47.274" departLane="random" departSpeed="20" />
    <vehicle id="蓝皖HG5888_4" type="standard_car" route="SN" depart="49.954" departLane="random" departSpeed="20" />
    <vehicle id="蓝皖HT1205_5" type="standard_car" route="NS" depart="63.788" departLane="random" departSpeed="20" />
    <vehicle id="无车牌_6" type="standard_car" route="WE" depart="111.754" departLane="random" departSpeed="20" />
    <vehicle id="蓝皖HT0292_7" type="standard_car" route="SN" depart="138.83" departLane="random" departSpeed="20" />
    <vehicle id="蓝皖HT0015_8" type="standard_car" route="WE" depart="150.782" departLane="random" departSpeed="20" />
    <vehicle id="蓝皖HHE806_9" type="standard_car" route="SN" depart="151.829" departLane="random" departSpeed="20" />
    <vehicle id="绿皖HD27095_10" type="standard_car" route="SN" depart="153.57" departLane="random" departSpeed="20" />
    <vehicle id="无车牌_11" type="standard_car" route="WE" depart="206.573" departLane="random" departSpeed="20" />
    <vehicle id="绿湘FD90992_12" type="standard_car" route="WN" depart="209.154" departLane="random" departSpeed="20" />
    <vehicle id="蓝皖HSF312_13" type="standard_car" route="SN" depart="239.931" departLane="random" departSpeed="20" />
    <vehicle id="蓝皖H96J27_14" type="standard_car" route="SW" depart="273.26" departLane="random" departSpeed="20" />
    <vehicle id="绿皖HD27095_15" type="standard_car" route="NS" depart="284.865" departLane="random" departSpeed="20" />
    <vehicle id="绿皖HDD0120_16" type="standard_car" route="NS" depart="311.362" departLane="random" departSpeed="20" />
    <vehicle id="蓝皖H0C932_17" type="standard_car" route="WE" depart="317.524" departLane="random" departSpeed="20" />
    <vehicle id="绿皖HD52608_18" type="standard_car" route="SN" depart="369.783" departLane="random" departSpeed="20" />
    <vehicle id="绿苏FFC7598_19" type="standard_car" route="SW" depart="377.559" departLane="random" departSpeed="20" />
    <vehicle id="绿皖HF23499_20" type="standard_car" route="SW" depart="383.334" departLane="random" departSpeed="20" />
    <vehicle id="绿皖HDE9416_21" type="standard_car" route="WE" depart="389.388" departLane="random" departSpeed="20" />
    <vehicle id="蓝皖H8S321_22" type="standard_car" route="WN" depart="433.164" departLane="random" departSpeed="20" />
    <vehicle id="蓝皖HX7539_23" type="standard_car" route="NS" depart="456.0" departLane="random" departSpeed="20" />
    <vehicle id="蓝皖HR8660_24" type="standard_car" route="WE" depart="485.247" departLane="random" departSpeed="20" />
    <vehicle id="蓝皖AQ57R6_25" type="standard_car" route="EW" depart="486.474" departLane="random" departSpeed="20" />
    <vehicle id="黄皖H08527_26" type="standard_car" route="EW" depart="490.421" departLane="random" departSpeed="20" />
    <vehicle id="蓝闽C1TZ12_27" type="standard_car" route="SW" depart="549.204" departLane="random" departSpeed="20" />
    <vehicle id="蓝皖HQ2950_28" type="standard_car" route="WN" depart="583.753" departLane="random" departSpeed="20" />
    <vehicle id="绿沪AB31894_29" type="standard_car" route="SN" depart="593.051" departLane="random" departSpeed="20" />
    <vehicle id="蓝鄂LF176L_30" type="standard_car" route="SN" depart="595.254" departLane="random" departSpeed="20" />
    <vehicle id="无车牌_31" type="standard_car" route="WE" depart="597.895" departLane="random" departSpeed="20" />
    <vehicle id="蓝皖HQ83C3_32" type="standard_car" route="WE" depart="625.853" departLane="random" departSpeed="20" />
    <vehicle id="绿皖HD87306_33" type="standard_car" route="SW" depart="634.737" departLane="random" departSpeed="20" />
    <vehicle id="蓝皖HD1099_34" type="standard_car" route="SW" depart="637.956" departLane="random" departSpeed="20" />
    <vehicle id="绿皖HD52608_35" type="standard_car" route="NS" depart="643.571" departLane="random" departSpeed="20" />
    <vehicle id="蓝皖SV6400_36" type="standard_car" route="NS" depart="656.248" departLane="random" departSpeed="20" />
    <vehicle id="绿皖HDC6257_37" type="standard_car" route="SW" depart="666.773" departLane="random" departSpeed="20" />
    <vehicle id="蓝皖HKE994_38" type="standard_car" route="NS" depart="676.381" departLane="random" departSpeed="20" />
    <vehicle id="无车牌_39" type="standard_car" route="NS" depart="682.158" departLane="random" departSpeed="20" />
    <vehicle id="绿浙AAP7299_40" type="standard_car" route="WE" depart="700.821" departLane="random" departSpeed="20" />
    <vehicle id="绿皖HD56165_41" type="standard_car" route="WE" depart="728.689" departLane="random" departSpeed="20" />
    <vehicle id="蓝皖HT1232_42" type="standard_car" route="WE" depart="759.052" departLane="random" departSpeed="20" />
    <vehicle id="蓝皖H87662_43" type="standard_car" route="WE" depart="780.275" departLane="random" departSpeed="20" />
    <vehicle id="绿皖HD18479_44" type="standard_car" route="NS" depart="783.368" departLane="random" departSpeed="20" />
    <vehicle id="绿皖HD50670_45" type="standard_car" route="WN" depart="786.923" departLane="random" departSpeed="20" />
    <vehicle id="绿皖AA05185_46" type="standard_car" route="ES" depart="788.096" departLane="random" departSpeed="20" />
    <vehicle id="蓝皖AU516H_47" type="standard_car" route="SW" depart="813.857" departLane="random" departSpeed="20" />
    <vehicle id="黄皖HA2518_48" type="standard_car" route="SW" depart="819.394" departLane="random" departSpeed="20" />
    <vehicle id="蓝皖FM6136_49" type="standard_car" route="NS" depart="864.833" departLane="random" departSpeed="20" />
    <vehicle id="绿皖HD81308_50" type="standard_car" route="SN" depart="868.409" departLane="random" departSpeed="20" />
    <vehicle id="蓝皖H3U490_51" type="standard_car" route="SW" depart="933.13" departLane="random" departSpeed="20" />
    <vehicle id="蓝皖H8U390_52" type="standard_car" route="SN" depart="938.211" departLane="random" departSpeed="20" />
    <vehicle id="蓝皖H7G011_53" type="standard_car" route="SW" depart="939.553" departLane="random" departSpeed="20" />
    <vehicle id="蓝皖H0Z131_54" type="standard_car" route="EW" depart="969.158" departLane="random" departSpeed="20" />
    <vehicle id="蓝皖HT1232_55" type="standard_car" route="SN" depart="992.541" departLane="random" departSpeed="20" />
    <vehicle id="无车牌_56" type="standard_car" route="EW" depart="1004.204" departLane="random" departSpeed="20" />
    <vehicle id="绿皖HD30707_57" type="standard_car" route="WE" depart="1032.638" departLane="random" departSpeed="20" />
    <vehicle id="无车牌_58" type="standard_car" route="SW" depart="1040.895" departLane="random" departSpeed="20" />
    <vehicle id="蓝皖HTP986_59" type="standard_car" route="WN" depart="1045.349" departLane="random" departSpeed="20" />
    <vehicle id="蓝皖H39L29_60" type="standard_car" route="SW" depart="1064.03" departLane="random" departSpeed="20" />
    <vehicle id="蓝皖HK36P6_61" type="standard_car" route="ES" depart="1099.192" departLane="random" departSpeed="20" />
    <vehicle id="无车牌_62" type="standard_car" route="EW" depart="1118.439" departLane="random" departSpeed="20" />
    <vehicle id="绿皖HD50670_63" type="standard_car" route="NS" depart="1145.179" departLane="random" departSpeed="20" />
    <vehicle id="蓝皖HT1232_64" type="standard_car" route="NS" depart="1145.668" departLane="random" departSpeed="20" />
    <vehicle id="黄皖G25288_65" type="standard_car" route="SN" depart="1158.537" departLane="random" departSpeed="20" />
    <vehicle id="蓝皖H91116_66" type="standard_car" route="EW" depart="1163.853" departLane="random" departSpeed="20" />
    <vehicle id="蓝皖HS3629_67" type="standard_car" route="WE" depart="1185.873" departLane="random" departSpeed="20" />
    <vehicle id="绿皖HD06840_68" type="standard_car" route="WE" depart="1192.935" departLane="random" departSpeed="20" />
    <vehicle id="无车牌_69" type="standard_car" route="NS" depart="1201.158" departLane="random" departSpeed="20" />
    <vehicle id="绿皖AFA2717_70" type="standard_car" route="SW" depart="1210.24" departLane="random" departSpeed="20" />
    <vehicle id="蓝皖HK5K28_71" type="standard_car" route="SN" depart="1219.296" departLane="random" departSpeed="20" />
    <vehicle id="黄皖H32988_72" type="standard_car" route="EW" depart="1233.242" departLane="random" departSpeed="20" />
    <vehicle id="蓝皖H08T87_73" type="standard_car" route="SW" depart="1270.724" departLane="random" departSpeed="20" />
    <vehicle id="黄皖HX927A_74" type="standard_car" route="WE" depart="1269.919" departLane="random" departSpeed="20" />
    <vehicle id="黄京ALP336_75" type="standard_car" route="SN" depart="1275.218" departLane="random" departSpeed="20" />
    <vehicle id="蓝皖HC080J_76" type="standard_car" route="WE" depart="1276.667" departLane="random" departSpeed="20" />
    <vehicle id="蓝鲁Q52ME8_77" type="standard_car" route="NS" depart="1302.123" departLane="random" departSpeed="20" />
    <vehicle id="绿皖HD50670_78" type="standard_car" route="WN" depart="1302.225" departLane="random" departSpeed="20" />
    <vehicle id="无车牌_79" type="standard_car" route="WE" depart="1326.675" departLane="random" departSpeed="20" />
    <vehicle id="蓝皖HT7282_80" type="standard_car" route="SW" depart="1331.937" departLane="random" departSpeed="20" />
    <vehicle id="无车牌_81" type="standard_car" route="SW" depart="1338.542" departLane="random" departSpeed="20" />
    <vehicle id="绿皖HD06840_82" type="standard_car" route="ES" depart="1339.504" departLane="random" departSpeed="20" />
    <vehicle id="蓝皖D00716_83" type="standard_car" route="SW" depart="1353.371" departLane="random" departSpeed="20" />
    <vehicle id="蓝皖HX00L5_84" type="standard_car" route="ES" depart="1353.143" departLane="random" departSpeed="20" />
    <vehicle id="无车牌_85" type="standard_car" route="SW" depart="1356.513" departLane="random" departSpeed="20" />
    <vehicle id="蓝皖CMN355_86" type="standard_car" route="EW" depart="1360.297" departLane="random" departSpeed="20" />
    <vehicle id="蓝皖HG7965_87" type="standard_car" route="SN" depart="1362.052" departLane="random" departSpeed="20" />
    <vehicle id="绿皖HDA7095_88" type="standard_car" route="SW" depart="1364.377" departLane="random" departSpeed="20" />
    <vehicle id="蓝皖HG80H1_89" type="standard_car" route="SW" depart="1397.994" departLane="random" departSpeed="20" />
    <vehicle id="蓝皖H152E6_90" type="standard_car" route="SW" depart="1438.339" departLane="random" departSpeed="20" />
    <vehicle id="绿皖HD51279_91" type="standard_car" route="ES" depart="1439.042" departLane="random" departSpeed="20" />
    <vehicle id="蓝皖HT0648_92" type="standard_car" route="SW" depart="1475.571" departLane="random" departSpeed="20" />
    <vehicle id="蓝皖H91EA0_93" type="standard_car" route="WN" depart="1480.235" departLane="random" departSpeed="20" />
    <vehicle id="蓝皖HVD668_94" type="standard_car" route="SW" depart="1481.991" departLane="random" departSpeed="20" />
    <vehicle id="蓝皖HU9783_95" type="standard_car" route="NS" depart="1489.283" departLane="random" departSpeed="20" />
    <vehicle id="蓝皖H6V295_96" type="standard_car" route="SN" depart="1496.173" departLane="random" departSpeed="20" />
    <vehicle id="蓝苏B9F83T_97" type="standard_car" route="SW" depart="1512.195" departLane="random" departSpeed="20" />
    <vehicle id="蓝皖H8C777_98" type="standard_car" route="SN" depart="1531.442" departLane="random" departSpeed="20" />
    <vehicle id="蓝皖HZY162_99" type="standard_car" route="EW" depart="1540.388" departLane="random" departSpeed="20" />
    <vehicle id="绿皖ADR6398_100" type="standard_car" route="EW" depart="1547.704" departLane="random" departSpeed="20" />
    <vehicle id="蓝皖HE97M5_101" type="standard_car" route="SN" depart="1557.915" departLane="random" departSpeed="20" />
    <vehicle id="无车牌_102" type="standard_car" route="SW" depart="1602.708" departLane="random" departSpeed="20" />
    <vehicle id="绿皖HDA5167_103" type="standard_car" route="ES" depart="1627.301" departLane="random" departSpeed="20" />
    <vehicle id="蓝皖HT56Y6_104" type="standard_car" route="SW" depart="1635.026" departLane="random" departSpeed="20" />
    <vehicle id="蓝皖HN9887_105" type="standard_car" route="ES" depart="1637.658" departLane="random" departSpeed="20" />
    <vehicle id="蓝皖HU8928_106" type="standard_car" route="NS" depart="1670.328" departLane="random" departSpeed="20" />
    <vehicle id="蓝皖A701JP_107" type="standard_car" route="NS" depart="1674.997" departLane="random" departSpeed="20" />
    <vehicle id="蓝皖H53885_108" type="standard_car" route="WE" depart="1675.394" departLane="random" departSpeed="20" />
    <vehicle id="绿皖AA94273_109" type="standard_car" route="WE" depart="1681.57" departLane="random" departSpeed="20" />
    <vehicle id="绿皖HDD7066_110" type="standard_car" route="WE" depart="1682.069" departLane="random" departSpeed="20" />
    <vehicle id="绿皖HDA2233_111" type="standard_car" route="SN" depart="1691.296" departLane="random" departSpeed="20" />
    <vehicle id="绿皖ADA9256_112" type="standard_car" route="SN" depart="1691.806" departLane="random" departSpeed="20" />
    <vehicle id="绿皖ADZ2351_113" type="standard_car" route="SN" depart="1698.455" departLane="random" departSpeed="20" />
    <vehicle id="蓝皖HT1459_114" type="standard_car" route="ES" depart="1715.117" departLane="random" departSpeed="20" />
    <vehicle id="蓝皖HF2787_115" type="standard_car" route="EW" depart="1746.999" departLane="random" departSpeed="20" />
    <vehicle id="黄皖LG4226_116" type="standard_car" route="EW" depart="1770.419" departLane="random" departSpeed="20" />
    <vehicle id="蓝皖HT0451_117" type="standard_car" route="WE" depart="1774.732" departLane="random" departSpeed="20" />
    <vehicle id="蓝皖HA29P5_118" type="standard_car" route="SN" depart="1802.778" departLane="random" departSpeed="20" />
    <vehicle id="蓝鲁HJ89D8_119" type="standard_car" route="SN" depart="1821.837" departLane="random" departSpeed="20" />
    <vehicle id="绿皖HD27709_120" type="standard_car" route="WE" depart="1847.124" departLane="random" departSpeed="20" />
    <vehicle id="蓝皖H67V19_121" type="standard_car" route="SW" depart="1872.673" departLane="random" departSpeed="20" />
    <vehicle id="无车牌_122" type="standard_car" route="EW" depart="1909.646" departLane="random" departSpeed="20" />
    <vehicle id="蓝皖HQ63E7_123" type="standard_car" route="WE" depart="1914.927" departLane="random" departSpeed="20" />
    <vehicle id="蓝皖HQ17A7_124" type="standard_car" route="WE" depart="1925.068" departLane="random" departSpeed="20" />
    <vehicle id="蓝皖HT1459_125" type="standard_car" route="WE" depart="1949.896" departLane="random" departSpeed="20" />
    <vehicle id="蓝皖GK6680_126" type="standard_car" route="SN" depart="2023.387" departLane="random" departSpeed="20" />
    <vehicle id="蓝皖HQ9524_127" type="standard_car" route="SW" depart="2026.926" departLane="random" departSpeed="20" />
    <vehicle id="蓝皖H5X301_128" type="standard_car" route="NS" depart="2045.323" departLane="random" departSpeed="20" />
    <vehicle id="绿皖HDG7669_129" type="standard_car" route="NS" depart="2052.43" departLane="random" departSpeed="20" />
    <vehicle id="蓝皖H16CL9_130" type="standard_car" route="SW" depart="2063.895" departLane="random" departSpeed="20" />
    <vehicle id="蓝皖HT69Z0_131" type="standard_car" route="SN" depart="2064.145" departLane="random" departSpeed="20" />
    <vehicle id="蓝皖DH17M3_132" type="standard_car" route="WE" depart="2080.72" departLane="random" departSpeed="20" />
    <vehicle id="蓝皖H36R93_133" type="standard_car" route="SN" depart="2085.035" departLane="random" departSpeed="20" />
    <vehicle id="绿皖HD81308_134" type="standard_car" route="NS" depart="2116.678" departLane="random" departSpeed="20" />
    <vehicle id="蓝皖H011E6_135" type="standard_car" route="WE" depart="2246.709" departLane="random" departSpeed="20" />
    <vehicle id="蓝皖H98F95_136" type="standard_car" route="SW" depart="2250.806" departLane="random" departSpeed="20" />
    <vehicle id="蓝皖H88AB6_137" type="standard_car" route="WE" depart="2253.294" departLane="random" departSpeed="20" />
    <vehicle id="黄皖N36132_138" type="standard_car" route="WE" depart="2285.206" departLane="random" departSpeed="20" />
    <vehicle id="蓝皖H9P012_139" type="standard_car" route="SN" depart="2340.901" departLane="random" departSpeed="20" />
    <vehicle id="蓝皖H31252_140" type="standard_car" route="SW" depart="2342.534" departLane="random" departSpeed="20" />
    <vehicle id="蓝皖HP979W_141" type="standard_car" route="ES" depart="2354.251" departLane="random" departSpeed="20" />
    <vehicle id="黄鲁DZ9168_142" type="standard_car" route="NS" depart="2355.933" departLane="random" departSpeed="20" />
    <vehicle id="蓝鄂A9999D_143" type="standard_car" route="NS" depart="2362.839" departLane="random" departSpeed="20" />
    <vehicle id="蓝皖H8Z022_144" type="standard_car" route="EW" depart="2402.377" departLane="random" departSpeed="20" />
    <vehicle id="蓝闽C1TZ12_145" type="standard_car" route="WE" depart="2406.452" departLane="random" departSpeed="20" />
    <vehicle id="蓝皖HKY066_146" type="standard_car" route="ES" depart="2407.611" departLane="random" departSpeed="20" />
    <vehicle id="蓝皖HWS303_147" type="standard_car" route="WE" depart="2423.117" departLane="random" departSpeed="20" />
    <vehicle id="蓝苏D6QF57_148" type="standard_car" route="NS" depart="2428.961" departLane="random" departSpeed="20" />
    <vehicle id="绿皖HD18601_149" type="standard_car" route="WE" depart="2486.519" departLane="random" departSpeed="20" />
    <vehicle id="蓝皖HE5178_150" type="standard_car" route="WE" depart="2493.34" departLane="random" departSpeed="20" />
    <vehicle id="蓝皖HLB218_151" type="standard_car" route="SW" depart="2497.513" departLane="random" departSpeed="20" />
    <vehicle id="黄皖H38878_152" type="standard_car" route="NS" depart="2504.675" departLane="random" departSpeed="20" />
    <vehicle id="蓝皖RC1982_153" type="standard_car" route="NS" depart="2510.882" departLane="random" departSpeed="20" />
    <vehicle id="蓝皖GCR892_154" type="standard_car" route="NS" depart="2544.956" departLane="random" departSpeed="20" />
    <vehicle id="绿皖AA58528_155" type="standard_car" route="SW" depart="2545.534" departLane="random" departSpeed="20" />
    <vehicle id="蓝皖AL1N46_156" type="standard_car" route="WE" depart="2548.629" departLane="random" departSpeed="20" />
    <vehicle id="蓝皖H01C37_157" type="standard_car" route="SW" depart="2564.265" departLane="random" departSpeed="20" />
    <vehicle id="蓝皖HT0425_158" type="standard_car" route="SW" depart="2662.028" departLane="random" departSpeed="20" />
    <vehicle id="蓝皖H6J586_159" type="standard_car" route="NS" depart="2691.341" departLane="random" departSpeed="20" />
    <vehicle id="无车牌_160" type="standard_car" route="NS" depart="2738.769" departLane="random" departSpeed="20" />
    <vehicle id="蓝皖H31Z55_161" type="standard_car" route="WE" depart="2759.614" departLane="random" departSpeed="20" />
    <vehicle id="无车牌_162" type="standard_car" route="NE" depart="2763.132" departLane="random" departSpeed="20" />
    <vehicle id="无车牌_163" type="standard_car" route="NE" depart="2768.269" departLane="random" departSpeed="20" />
    <vehicle id="蓝皖HC78H5_164" type="standard_car" route="NS" depart="2771.248" departLane="random" departSpeed="20" />
    <vehicle id="蓝浙A25U9N_165" type="standard_car" route="EW" depart="2804.053" departLane="random" departSpeed="20" />
    <vehicle id="蓝皖A025UV_166" type="standard_car" route="WE" depart="2829.903" departLane="random" departSpeed="20" />
    <vehicle id="绿皖HD08992_167" type="standard_car" route="WE" depart="2887.205" departLane="random" departSpeed="20" />
    <vehicle id="无车牌_168" type="standard_car" route="SN" depart="2919.604" departLane="random" departSpeed="20" />
    <vehicle id="绿皖HD01561_169" type="standard_car" route="NS" depart="2941.91" departLane="random" departSpeed="20" />
    <vehicle id="蓝皖HT13C5_170" type="standard_car" route="NS" depart="2962.243" departLane="random" departSpeed="20" />
    <vehicle id="蓝皖HX6148_171" type="standard_car" route="WE" depart="2988.851" departLane="random" departSpeed="20" />
    <vehicle id="无车牌_172" type="standard_car" route="SW" depart="2998.888" departLane="random" departSpeed="20" />
    <vehicle id="绿皖HD51279_173" type="standard_car" route="SN" depart="3021.852" departLane="random" departSpeed="20" />
    <vehicle id="绿皖HDE6922_174" type="standard_car" route="SW" depart="3022.911" departLane="random" departSpeed="20" />
    <vehicle id="蓝皖HE5178_175" type="standard_car" route="SW" depart="3027.888" departLane="random" departSpeed="20" />
    <vehicle id="无车牌_176" type="standard_car" route="ES" depart="3055.302" departLane="random" departSpeed="20" />
    <vehicle id="蓝皖HNK080_177" type="standard_car" route="EW" depart="3071.814" departLane="random" departSpeed="20" />
    <vehicle id="蓝皖HZ3300_178" type="standard_car" route="ES" depart="3089.042" departLane="random" departSpeed="20" />
    <vehicle id="蓝皖HEC779_179" type="standard_car" route="SN" depart="3134.758" departLane="random" departSpeed="20" />
    <vehicle id="蓝皖HV79P5_180" type="standard_car" route="SN" depart="3141.938" departLane="random" departSpeed="20" />
    <vehicle id="无车牌_181" type="standard_car" route="SN" depart="3150.511" departLane="random" departSpeed="20" />
    <vehicle id="黄苏CKT685_182" type="standard_car" route="NS" depart="3152.311" departLane="random" departSpeed="20" />
    <vehicle id="绿皖HD66013_183" type="standard_car" route="WE" depart="3156.927" departLane="random" departSpeed="20" />
    <vehicle id="无车牌_184" type="standard_car" route="SN" depart="3180.929" departLane="random" departSpeed="20" />
    <vehicle id="蓝皖HP5888_185" type="standard_car" route="SN" depart="3196.222" departLane="random" departSpeed="20" />
    <vehicle id="蓝皖HP01X8_186" type="standard_car" route="WE" depart="3230.621" departLane="random" departSpeed="20" />
    <vehicle id="无车牌_187" type="standard_car" route="WE" depart="3233.122" departLane="random" departSpeed="20" />
    <vehicle id="蓝皖H89329_188" type="standard_car" route="EW" depart="3239.322" departLane="random" departSpeed="20" />
    <vehicle id="无车牌_189" type="standard_car" route="SN" depart="3258.667" departLane="random" departSpeed="20" />
    <vehicle id="蓝皖HT1235_190" type="standard_car" route="SW" depart="3262.923" departLane="random" departSpeed="20" />
    <vehicle id="蓝皖H008E2_191" type="standard_car" route="NS" depart="3294.426" departLane="random" departSpeed="20" />
    <vehicle id="绿皖HD18601_192" type="standard_car" route="WE" depart="3332.511" departLane="random" departSpeed="20" />
    <vehicle id="黄皖F84167_193" type="standard_car" route="NS" depart="3344.978" departLane="random" departSpeed="20" />
    <vehicle id="蓝皖H09X86_194" type="standard_car" route="SW" depart="3350.315" departLane="random" departSpeed="20" />
    <vehicle id="绿皖AAF2208_195" type="standard_car" route="SN" depart="3415.339" departLane="random" departSpeed="20" />
    <vehicle id="蓝沪C677F3_196" type="standard_car" route="SW" depart="3443.749" departLane="random" departSpeed="20" />
    <vehicle id="白皖H9398警_197" type="standard_car" route="WE" depart="3500.397" departLane="random" departSpeed="20" />
    <vehicle id="黄鲁RN1193_198" type="standard_car" route="NS" depart="3527.423" departLane="random" departSpeed="20" />
    <vehicle id="蓝皖HH12S6_199" type="standard_car" route="WN" depart="3533.58" departLane="random" departSpeed="20" />
    <vehicle id="绿皖HDE9416_200" type="standard_car" route="ES" depart="3550.206" departLane="random" departSpeed="20" />
    <vehicle id="蓝皖HP5888_201" type="standard_car" route="NS" depart="3560.741" departLane="random" departSpeed="20" />
    <vehicle id="无车牌_202" type="standard_car" route="SN" depart="3641.041" departLane="random" departSpeed="20" />
    <vehicle id="绿皖HD01188_203" type="standard_car" route="SW" depart="3672.423" departLane="random" departSpeed="20" />
    <vehicle id="黄皖H42066_204" type="standard_car" route="WE" depart="3723.612" departLane="random" departSpeed="20" />
    <vehicle id="黄鲁DF9870_205" type="standard_car" route="WE" depart="3744.025" departLane="random" departSpeed="20" />
    <vehicle id="绿皖HDG7101_206" type="standard_car" route="EW" depart="3758.656" departLane="random" departSpeed="20" />
    <vehicle id="绿皖HD68881_207" type="standard_car" route="WE" depart="3801.14" departLane="random" departSpeed="20" />
    <vehicle id="蓝皖H5U513_208" type="standard_car" route="WE" depart="3803.958" departLane="random" departSpeed="20" />
    <vehicle id="无车牌_209" type="standard_car" route="SN" depart="3888.254" departLane="random" departSpeed="20" />
    <vehicle id="蓝皖H62P25_210" type="standard_car" route="SW" depart="3893.293" departLane="random" departSpeed="20" />
    <vehicle id="蓝皖HT1779_211" type="standard_car" route="SW" depart="3894.913" departLane="random" departSpeed="20" />
    <vehicle id="蓝皖H36R93_212" type="standard_car" route="NS" depart="3895.65" departLane="random" departSpeed="20" />
    <vehicle id="蓝皖HC5567_213" type="standard_car" route="SW" depart="3900.056" departLane="random" departSpeed="20" />
    <vehicle id="蓝皖HM1040_214" type="standard_car" route="NS" depart="3917.06" departLane="random" departSpeed="20" />
    <vehicle id="无车牌_215" type="standard_car" route="SN" depart="3950.865" departLane="random" departSpeed="20" />
    <vehicle id="蓝皖AE680P_216" type="standard_car" route="SW" depart="4125.264" departLane="random" departSpeed="20" />
    <vehicle id="蓝皖HS8119_217" type="standard_car" route="SW" depart="4127.045" departLane="random" departSpeed="20" />
    <vehicle id="蓝皖HT0563_218" type="standard_car" route="WE" depart="4132.001" departLane="random" departSpeed="20" />
    <vehicle id="蓝皖H4D147_219" type="standard_car" route="EW" depart="4154.612" departLane="random" departSpeed="20" />
    <vehicle id="蓝皖HK8115_220" type="standard_car" route="SW" depart="4169.558" departLane="random" departSpeed="20" />
    <vehicle id="蓝皖HT0089_221" type="standard_car" route="NS" depart="4169.765" departLane="random" departSpeed="20" />
    <vehicle id="黄皖SE5858_222" type="standard_car" route="NS" depart="4179.751" departLane="random" departSpeed="20" />
    <vehicle id="蓝皖H77H66_223" type="standard_car" route="SW" depart="4230.028" departLane="random" departSpeed="20" />
    <vehicle id="蓝皖HB878H_224" type="standard_car" route="WE" depart="4255.237" departLane="random" departSpeed="20" />
    <vehicle id="蓝浙BZG513_225" type="standard_car" route="WE" depart="4275.563" departLane="random" departSpeed="20" />
    <vehicle id="绿皖HD87017_226" type="standard_car" route="WE" depart="4279.743" departLane="random" departSpeed="20" />
    <vehicle id="无车牌_227" type="standard_car" route="NS" depart="4313.573" departLane="random" departSpeed="20" />
    <vehicle id="无车牌_228" type="standard_car" route="SN" depart="4341.522" departLane="random" departSpeed="20" />
    <vehicle id="黄皖E21102_229" type="standard_car" route="NS" depart="4353.945" departLane="random" departSpeed="20" />
    <vehicle id="黄皖E22627_230" type="standard_car" route="NS" depart="4365.563" departLane="random" departSpeed="20" />
    <vehicle id="黄皖E61967_231" type="standard_car" route="NS" depart="4404.401" departLane="random" departSpeed="20" />
    <vehicle id="蓝皖A363XN_232" type="standard_car" route="SN" depart="4458.291" departLane="random" departSpeed="20" />
    <vehicle id="无车牌_233" type="standard_car" route="WN" depart="4520.693" departLane="random" departSpeed="20" />
    <vehicle id="蓝皖HQ4236_234" type="standard_car" route="NS" depart="4521.537" departLane="random" departSpeed="20" />
    <vehicle id="蓝皖HK7526_235" type="standard_car" route="EW" depart="4537.636" departLane="random" departSpeed="20" />
    <vehicle id="蓝皖A3NK29_236" type="standard_car" route="SW" depart="4559.986" departLane="random" departSpeed="20" />
    <vehicle id="蓝皖HJ3552_237" type="standard_car" route="SW" depart="4562.964" departLane="random" departSpeed="20" />
    <vehicle id="蓝皖HC2988_238" type="standard_car" route="SN" depart="4580.346" departLane="random" departSpeed="20" />
    <vehicle id="蓝浙BZG513_239" type="standard_car" route="ES" depart="4621.371" departLane="random" departSpeed="20" />
    <vehicle id="蓝皖HZ93W0_240" type="standard_car" route="NS" depart="4625.505" departLane="random" departSpeed="20" />
    <vehicle id="绿皖HD05873_241" type="standard_car" route="WE" depart="4703.344" departLane="random" departSpeed="20" />
    <vehicle id="绿皖ADZ2351_242" type="standard_car" route="NS" depart="4727.761" departLane="random" departSpeed="20" />
    <vehicle id="无车牌_243" type="standard_car" route="SW" depart="4734.105" departLane="random" departSpeed="20" />
    <vehicle id="蓝辽A92P3K_244" type="standard_car" route="ES" depart="4733.468" departLane="random" departSpeed="20" />
    <vehicle id="蓝豫S20H97_245" type="standard_car" route="NS" depart="4760.261" departLane="random" departSpeed="20" />
    <vehicle id="蓝皖HT3322_246" type="standard_car" route="SN" depart="4784.666" departLane="random" departSpeed="20" />
    <vehicle id="绿皖HD51279_247" type="standard_car" route="WE" depart="4839.797" departLane="random" departSpeed="20" />
    <vehicle id="白皖H9398警_248" type="standard_car" route="SW" depart="4866.903" departLane="random" departSpeed="20" />
    <vehicle id="黄皖B28695_249" type="standard_car" route="NS" depart="4913.464" departLane="random" departSpeed="20" />
    <vehicle id="无车牌_250" type="standard_car" route="SW" depart="4991.605" departLane="random" departSpeed="20" />
    <vehicle id="蓝粤TM208Z_251" type="standard_car" route="SW" depart="5002.816" departLane="random" departSpeed="20" />