<connections>
    <!--从北到南,直行-->
    <connection from="n_t" to="t_s" fromLane="1" toLane="1" pass="True"/>
    <connection from="n_t" to="t_s" fromLane="1" toLane="2" pass="True"/>

    <connection from="n_t" to="t_s" fromLane="2" toLane="3" pass="True"/>
    <connection from="n_t" to="t_s" fromLane="2" toLane="4" pass="True"/>

    <connection from="n_t" to="t_s" fromLane="3" toLane="5" pass="True"/>
    <connection from="n_t" to="t_s" fromLane="3" toLane="6" pass="True"/>

    <!--从北到南,左转-->
    <connection from="n_t" to="t_e" fromLane="4" toLane="0" pass="True"/>
    <connection from="n_t" to="t_e" fromLane="4" toLane="1" pass="True"/>

    <connection from="n_t" to="t_e" fromLane="5" toLane="2" pass="True"/>
    <connection from="n_t" to="t_e" fromLane="5" toLane="3" pass="True"/>

    <!--从南到北，直行-->
    <connection from="s_t" to="t_n" fromLane="1" toLane="0" pass="True"/>
    <connection from="s_t" to="t_n" fromLane="1" toLane="1" pass="True"/>

    <connection from="s_t" to="t_n" fromLane="2" toLane="2" pass="True"/>
    <connection from="s_t" to="t_n" fromLane="2" toLane="3" pass="True"/>

    <connection from="s_t" to="t_n" fromLane="3" toLane="4" pass="True"/>
    <connection from="s_t" to="t_n" fromLane="3" toLane="5" pass="True"/>

    <!--从南到北，左转-->
    <connection from="s_t" to="t_w" fromLane="4" toLane="0" pass="True"/>
    <connection from="s_t" to="t_w" fromLane="4" toLane="1" pass="True"/>

    <connection from="s_t" to="t_w" fromLane="5" toLane="1" pass="True"/>
    <connection from="s_t" to="t_w" fromLane="5" toLane="2" pass="True"/>

    <!--从东到西，直行-->
    <connection from="e_t" to="t_w" fromLane="0" toLane="0" pass="True"/>
    <connection from="e_t" to="t_w" fromLane="0" toLane="1" pass="True"/>

    <connection from="e_t" to="t_w" fromLane="1" toLane="1" pass="True"/>
    <connection from="e_t" to="t_w" fromLane="1" toLane="2" pass="True"/>

    <connection from="e_t" to="t_w" fromLane="2" toLane="1" pass="True"/>
    <connection from="e_t" to="t_w" fromLane="2" toLane="2" pass="True"/>

    <!--从东到西，左转-->
    <connection from="e_t" to="t_s" fromLane="3" toLane="2" pass="True"/>
    <connection from="e_t" to="t_s" fromLane="3" toLane="3" pass="True"/>
    <connection from="e_t" to="t_s" fromLane="3" toLane="4" pass="True"/>

    <!--从西到东，直行-->
    <connection from="w_t" to="t_e" fromLane="1" toLane="0" pass="True"/>
    <connection from="w_t" to="t_e" fromLane="1" toLane="1" pass="True"/>

    <connection from="w_t" to="t_e" fromLane="2" toLane="1" pass="True"/>
    <connection from="w_t" to="t_e" fromLane="2" toLane="2" pass="True"/>

    <connection from="w_t" to="t_e" fromLane="3" toLane="2" pass="True"/>
    <connection from="w_t" to="t_e" fromLane="3" toLane="3" pass="True"/>

    <!--从西到东，左转-->
    <connection from="w_t" to="t_n" fromLane="4" toLane="1" pass="True"/>
    <connection from="w_t" to="t_n" fromLane="4" toLane="2" pass="True"/>

    <connection from="w_t" to="t_n" fromLane="5" toLane="3" pass="True"/>
    <connection from="w_t" to="t_n" fromLane="5" toLane="4" pass="True"/>

</connections>