<routes>

    <vehicle id="绿皖RD08315_59949" type="standard_car" route="NS" depart="140370.264" departLane="random" departSpeed="20" />
    <vehicle id="蓝皖AK31W9_59950" type="standard_car" route="NE" depart="140370.87" departLane="random" departSpeed="20" />
    <vehicle id="绿皖HF80707_59951" type="standard_car" route="SN" depart="140372.663" departLane="random" departSpeed="20" />
    <vehicle id="绿皖HF59775_59952" type="standard_car" route="SN" depart="140372.753" departLane="random" departSpeed="20" />
    <vehicle id="蓝皖HF26H2_59953" type="standard_car" route="WE" depart="140372.823" departLane="random" departSpeed="20" />
    <vehicle id="蓝皖H03E99_59954" type="standard_car" route="SW" depart="140376.958" departLane="random" departSpeed="20" />
    <vehicle id="蓝皖H3K102_59955" type="standard_car" route="NS" depart="140378.449" departLane="random" departSpeed="20" />
    <vehicle id="黄皖H52910_59956" type="standard_car" route="WN" depart="140378.498" departLane="random" departSpeed="20" />
    <vehicle id="蓝皖A0H814_59957" type="standard_car" route="NS" depart="140383.535" departLane="random" departSpeed="20" />
    <vehicle id="蓝苏E97VY9_59958" type="standard_car" route="EW" depart="140384.233" departLane="random" departSpeed="20" />
    <vehicle id="蓝皖AWZ643_59959" type="standard_car" route="SW" depart="140384.264" departLane="random" departSpeed="20" />
    <vehicle id="蓝皖HWR920_59960" type="standard_car" route="NS" depart="140384.703" departLane="random" departSpeed="20" />
    <vehicle id="蓝皖GGM921_59961" type="standard_car" route="ES" depart="140385.639" departLane="random" departSpeed="20" />
    <vehicle id="蓝皖HK998L_59962" type="standard_car" route="EW" depart="140391.06" departLane="random" departSpeed="20" />
    <vehicle id="蓝皖HQ0311_59963" type="standard_car" route="EW" depart="140392.796" departLane="random" departSpeed="20" />
    <vehicle id="蓝豫A6G12T_59964" type="standard_car" route="NS" depart="140394.329" departLane="random" departSpeed="20" />
    <vehicle id="蓝皖A8GG67_59965" type="standard_car" route="NS" depart="140399.607" departLane="random" departSpeed="20" />
    <vehicle id="绿皖AA19630_59966" type="standard_car" route="NS" depart="140400.118" departLane="random" departSpeed="20" />
    <vehicle id="蓝皖HGJ968_59967" type="standard_car" route="ES" depart="140400.585" departLane="random" departSpeed="20" />
    <vehicle id="无车牌_59968" type="standard_car" route="NS" depart="140408.229" departLane="random" departSpeed="20" />
    <vehicle id="绿皖HDD9366_59969" type="standard_car" route="EW" depart="140409.97" departLane="random" departSpeed="20" />
    <vehicle id="绿皖HF81080_59970" type="standard_car" route="WE" depart="140411.372" departLane="random" departSpeed="20" />
    <vehicle id="蓝皖HG5921_59971" type="standard_car" route="NS" depart="140412.899" departLane="random" departSpeed="20" />
    <vehicle id="蓝皖HHD606_59972" type="standard_car" route="SW" depart="140412.93" departLane="random" departSpeed="20" />
    <vehicle id="蓝皖H2V826_59973" type="standard_car" route="ES" depart="140413.976" departLane="random" departSpeed="20" />
    <vehicle id="蓝皖HLR801_59974" type="standard_car" route="WE" depart="140416.384" departLane="random" departSpeed="20" />
    <vehicle id="蓝粤KEW988_59975" type="standard_car" route="NS" depart="140416.8" departLane="random" departSpeed="20" />
    <vehicle id="蓝皖H1P152_59976" type="standard_car" route="WE" depart="140417.324" departLane="random" departSpeed="20" />
    <vehicle id="蓝皖HD5735_59977" type="standard_car" route="SN" depart="140417.422" departLane="random" departSpeed="20" />
    <vehicle id="无车牌_59978" type="standard_car" route="NS" depart="140419.36" departLane="random" departSpeed="20" />
    <vehicle id="蓝皖HGC789_59979" type="standard_car" route="WE" depart="140419.662" departLane="random" departSpeed="20" />
    <vehicle id="蓝皖HY011Y_59980" type="standard_car" route="NS" depart="140419.631" departLane="random" departSpeed="20" />
    <vehicle id="蓝皖H2M756_59981" type="standard_car" route="NS" depart="140420.679" departLane="random" departSpeed="20" />
    <vehicle id="蓝皖H3V118_59982" type="standard_car" route="NS" depart="140421.261" departLane="random" departSpeed="20" />
    <vehicle id="蓝皖HJ7404_59983" type="standard_car" route="EW" depart="140421.93" departLane="random" departSpeed="20" />
    <vehicle id="绿皖HF97338_59984" type="standard_car" route="WN" depart="140423.644" departLane="random" departSpeed="20" />
    <vehicle id="蓝皖AC9494_59985" type="standard_car" route="ES" depart="140424.92" departLane="random" departSpeed="20" />
    <vehicle id="蓝皖HT1093_59986" type="standard_car" route="NS" depart="140425.053" departLane="random" departSpeed="20" />
    <vehicle id="蓝皖HK0659_59987" type="standard_car" route="WE" depart="140425.475" departLane="random" departSpeed="20" />
    <vehicle id="无车牌_59988" type="standard_car" route="NS" depart="140425.503" departLane="random" departSpeed="20" />
    <vehicle id="蓝皖H7X923_59989" type="standard_car" route="WE" depart="140427.248" departLane="random" departSpeed="20" />
    <vehicle id="蓝皖A372VQ_59990" type="standard_car" route="WE" depart="140428.478" departLane="random" departSpeed="20" />
    <vehicle id="蓝皖HT0883_59991" type="standard_car" route="WE" depart="140429.959" departLane="random" departSpeed="20" />
    <vehicle id="蓝皖H05U18_59992" type="standard_car" route="EW" depart="140430.456" departLane="random" departSpeed="20" />
    <vehicle id="蓝皖H2Q261_59993" type="standard_car" route="EW" depart="140433.274" departLane="random" departSpeed="20" />
    <vehicle id="蓝沪C60913_59994" type="standard_car" route="NS" depart="140433.697" departLane="random" departSpeed="20" />
    <vehicle id="黄皖H08939D_59995" type="standard_car" route="WE" depart="140434.161" departLane="random" departSpeed="20" />
    <vehicle id="绿苏ADU1091_59996" type="standard_car" route="EW" depart="140436.915" departLane="random" departSpeed="20" />
    <vehicle id="蓝皖HJ577Y_59997" type="standard_car" route="WE" depart="140437.092" departLane="random" departSpeed="20" />
    <vehicle id="黄皖H18550_59998" type="standard_car" route="WE" depart="140438.012" departLane="random" departSpeed="20" />
    <vehicle id="蓝皖HE8856_59999" type="standard_car" route="WN" depart="140439.52" departLane="random" departSpeed="20" />
    <vehicle id="蓝皖H6Q185_60000" type="standard_car" route="NS" depart="140441.378" departLane="random" departSpeed="20" />
    <vehicle id="蓝皖HB5801_60001" type="standard_car" route="WE" depart="140442.131" departLane="random" departSpeed="20" />
    <vehicle id="绿皖HF72068_60002" type="standard_car" route="NS" depart="140442.768" departLane="random" departSpeed="20" />
    <vehicle id="蓝沪CF0072_60003" type="standard_car" route="WN" depart="140442.891" departLane="random" departSpeed="20" />
    <vehicle id="蓝闽A83G5M_60004" type="standard_car" route="NS" depart="140445.92" departLane="random" departSpeed="20" />
    <vehicle id="蓝皖H2K175_60005" type="standard_car" route="WE" depart="140447.274" departLane="random" departSpeed="20" />
    <vehicle id="蓝皖H2H119_60006" type="standard_car" route="WE" depart="140448.232" departLane="random" departSpeed="20" />
    <vehicle id="蓝鄂A1E8S0_60007" type="standard_car" route="WE" depart="140450.004" departLane="random" departSpeed="20" />
    <vehicle id="黄皖H00051_60008" type="standard_car" route="WE" depart="140454.433" departLane="random" departSpeed="20" />
    <vehicle id="蓝皖H7H363_60009" type="standard_car" route="SN" depart="140454.97" departLane="random" departSpeed="20" />
    <vehicle id="黄皖HA1598_60010" type="standard_car" route="WE" depart="140456.693" departLane="random" departSpeed="20" />
    <vehicle id="蓝皖HJ969H_60011" type="standard_car" route="SN" depart="140457.939" departLane="random" departSpeed="20" />
    <vehicle id="蓝皖HL0064_60012" type="standard_car" route="WN" depart="140459.04" departLane="random" departSpeed="20" />
    <vehicle id="绿皖AFG0161_60013" type="standard_car" route="SN" depart="140460.877" departLane="random" departSpeed="20" />
    <vehicle id="蓝皖EQT025_60014" type="standard_car" route="SW" depart="140463.256" departLane="random" departSpeed="20" />
    <vehicle id="绿皖HD32333_60015" type="standard_car" route="SN" depart="140463.426" departLane="random" departSpeed="20" />
    <vehicle id="蓝皖H5S129_60016" type="standard_car" route="SN" depart="140463.506" departLane="random" departSpeed="20" />
    <vehicle id="黄皖H08280D_60017" type="standard_car" route="SN" depart="140473.449" departLane="random" departSpeed="20" />
    <vehicle id="蓝皖H1X281_60018" type="standard_car" route="NS" depart="140474.039" departLane="random" departSpeed="20" />
    <vehicle id="蓝皖HT5337_60019" type="standard_car" route="WN" depart="140474.36" departLane="random" departSpeed="20" />
    <vehicle id="无车牌_60020" type="standard_car" route="WE" depart="140475.172" departLane="random" departSpeed="20" />
    <vehicle id="蓝皖R28086_60021" type="standard_car" route="SN" depart="140477.556" departLane="random" departSpeed="20" />
    <vehicle id="蓝鲁B9S72F_60022" type="standard_car" route="NS" depart="140478.546" departLane="random" departSpeed="20" />
    <vehicle id="蓝冀GKZ300_60023" type="standard_car" route="WE" depart="140478.867" departLane="random" departSpeed="20" />
    <vehicle id="绿皖HD25870_60024" type="standard_car" route="SW" depart="140478.768" departLane="random" departSpeed="20" />
    <vehicle id="白皖Z3666警_60025" type="standard_car" route="EW" depart="140480.475" departLane="random" departSpeed="20" />
    <vehicle id="蓝赣AP6T90_60026" type="standard_car" route="SW" depart="140483.433" departLane="random" departSpeed="20" />
    <vehicle id="蓝皖HFE568_60027" type="standard_car" route="SN" depart="140486.381" departLane="random" departSpeed="20" />
    <vehicle id="蓝皖AW2965_60028" type="standard_car" route="EW" depart="140489.7" departLane="random" departSpeed="20" />
    <vehicle id="无车牌_60029" type="standard_car" route="EW" depart="140491.0" departLane="random" departSpeed="20" />
    <vehicle id="蓝赣BYW737_60030" type="standard_car" route="NS" depart="140493.778" departLane="random" departSpeed="20" />
    <vehicle id="无车牌_60031" type="standard_car" route="EW" depart="140495.339" departLane="random" departSpeed="20" />
    <vehicle id="无车牌_60032" type="standard_car" route="EW" depart="140499.039" departLane="random" departSpeed="20" />
    <vehicle id="绿皖HD09938_60033" type="standard_car" route="ES" depart="140499.246" departLane="random" departSpeed="20" />
    <vehicle id="蓝皖APX735_60034" type="standard_car" route="EW" depart="140506.051" departLane="random" departSpeed="20" />
    <vehicle id="蓝皖HAK209_60035" type="standard_car" route="EW" depart="140507.198" departLane="random" departSpeed="20" />
    <vehicle id="蓝皖H74162_60036" type="standard_car" route="WE" depart="140509.047" departLane="random" departSpeed="20" />
    <vehicle id="蓝皖HR8000_60037" type="standard_car" route="WE" depart="140511.376" departLane="random" departSpeed="20" />
    <vehicle id="蓝皖HJ0777_60038" type="standard_car" route="WE" depart="140512.209" departLane="random" departSpeed="20" />
    <vehicle id="蓝皖HK0870_60039" type="standard_car" route="EW" depart="140513.552" departLane="random" departSpeed="20" />
    <vehicle id="绿皖HDB5855_60040" type="standard_car" route="WE" depart="140513.89" departLane="random" departSpeed="20" />
    <vehicle id="绿皖HD46965_60041" type="standard_car" route="WN" depart="140514.548" departLane="random" departSpeed="20" />
    <vehicle id="蓝皖H56CJ7_60042" type="standard_car" route="WE" depart="140514.557" departLane="random" departSpeed="20" />
    <vehicle id="蓝皖HJ1A09_60043" type="standard_car" route="EW" depart="140516.224" departLane="random" departSpeed="20" />
    <vehicle id="蓝皖HE7236_60044" type="standard_car" route="WE" depart="140515.931" departLane="random" departSpeed="20" />
    <vehicle id="蓝皖H5B953_60045" type="standard_car" route="WN" depart="140516.829" departLane="random" departSpeed="20" />
    <vehicle id="蓝皖H78V26_60046" type="standard_car" route="WE" depart="140517.532" departLane="random" departSpeed="20" />
    <vehicle id="蓝皖HPX066_60047" type="standard_car" route="EW" depart="140518.09" departLane="random" departSpeed="20" />
    <vehicle id="蓝皖H07639_60048" type="standard_car" route="WE" depart="140518.633" departLane="random" departSpeed="20" />
    <vehicle id="蓝皖HZ9505_60049" type="standard_car" route="WE" depart="140519.342" departLane="random" departSpeed="20" />
    <vehicle id="蓝皖HE926Y_60050" type="standard_car" route="WE" depart="140520.714" departLane="random" departSpeed="20" />
    <vehicle id="蓝赣EM1R09_60051" type="standard_car" route="WN" depart="140521.382" departLane="random" departSpeed="20" />
    <vehicle id="蓝皖H0M756_60052" type="standard_car" route="WE" depart="140523.075" departLane="random" departSpeed="20" />
    <vehicle id="黄皖G09212_60053" type="standard_car" route="WE" depart="140524.053" departLane="random" departSpeed="20" />
    <vehicle id="无车牌_60054" type="standard_car" route="EW" depart="140524.772" departLane="random" departSpeed="20" />
    <vehicle id="蓝皖HW7607_60055" type="standard_car" route="WE" depart="140526.426" departLane="random" departSpeed="20" />
    <vehicle id="蓝皖HDW996_60056" type="standard_car" route="WN" depart="140527.125" departLane="random" departSpeed="20" />
    <vehicle id="蓝皖H9D068_60057" type="standard_car" route="NS" depart="140527.752" departLane="random" departSpeed="20" />
    <vehicle id="黄皖HA3350_60058" type="standard_car" route="EW" depart="140528.029" departLane="random" departSpeed="20" />
    <vehicle id="蓝皖H17DE2_60059" type="standard_car" route="WE" depart="140528.669" departLane="random" departSpeed="20" />
    <vehicle id="黄皖H41959_60060" type="standard_car" route="EW" depart="140528.892" departLane="random" departSpeed="20" />
    <vehicle id="绿皖HD16309_60061" type="standard_car" route="SW" depart="140529.533" departLane="random" departSpeed="20" />
    <vehicle id="蓝皖H0V533_60062" type="standard_car" route="WE" depart="140529.967" departLane="random" departSpeed="20" />
    <vehicle id="蓝皖H7J100_60063" type="standard_car" route="WN" depart="140530.595" departLane="random" departSpeed="20" />
    <vehicle id="蓝皖A0GY58_60064" type="standard_car" route="WE" depart="140531.996" departLane="random" departSpeed="20" />
    <vehicle id="黄皖H04188D_60065" type="standard_car" route="EW" depart="140532.282" departLane="random" departSpeed="20" />
    <vehicle id="蓝皖H1Q264_60066" type="standard_car" route="SN" depart="140533.941" departLane="random" departSpeed="20" />
    <vehicle id="蓝皖HA4180_60067" type="standard_car" route="NS" depart="140535.48" departLane="random" departSpeed="20" />
    <vehicle id="蓝皖HL235X_60068" type="standard_car" route="WE" depart="140535.944" departLane="random" departSpeed="20" />
    <vehicle id="蓝皖HP0963_60069" type="standard_car" route="WE" depart="140536.254" departLane="random" departSpeed="20" />
    <vehicle id="蓝皖HT0242_60070" type="standard_car" route="WE" depart="140537.923" departLane="random" departSpeed="20" />
    <vehicle id="蓝皖ANC068_60071" type="standard_car" route="ES" depart="140538.396" departLane="random" departSpeed="20" />
    <vehicle id="无车牌_60072" type="standard_car" route="EW" depart="140536.047" departLane="random" departSpeed="20" />
    <vehicle id="蓝皖H58021_60073" type="standard_car" route="SN" depart="140538.778" departLane="random" departSpeed="20" />
    <vehicle id="蓝皖H72A26_60074" type="standard_car" route="WE" depart="140539.223" departLane="random" departSpeed="20" />
    <vehicle id="蓝皖H39D65_60075" type="standard_car" route="EW" depart="140540.548" departLane="random" departSpeed="20" />
    <vehicle id="无车牌_60076" type="standard_car" route="NS" depart="140541.266" departLane="random" departSpeed="20" />
    <vehicle id="蓝皖KB1F09_60077" type="standard_car" route="NS" depart="140541.716" departLane="random" departSpeed="20" />
    <vehicle id="无车牌_60078" type="standard_car" route="WE" depart="140542.06" departLane="random" departSpeed="20" />
    <vehicle id="蓝皖H5D595_60079" type="standard_car" route="NS" depart="140542.796" departLane="random" departSpeed="20" />
    <vehicle id="蓝皖GR6886_60080" type="standard_car" route="SN" depart="140543.316" departLane="random" departSpeed="20" />
    <vehicle id="无车牌_60081" type="standard_car" route="ES" depart="140546.091" departLane="random" departSpeed="20" />
    <vehicle id="绿皖HDG7195_60082" type="standard_car" route="NS" depart="140545.953" departLane="random" departSpeed="20" />
    <vehicle id="绿皖HD51979_60083" type="standard_car" route="NS" depart="140547.793" departLane="random" departSpeed="20" />
    <vehicle id="蓝皖HFY013_60084" type="standard_car" route="WN" depart="140549.015" departLane="random" departSpeed="20" />
    <vehicle id="无车牌_60085" type="standard_car" route="SW" depart="140549.172" departLane="random" departSpeed="20" />
    <vehicle id="蓝皖H8L925_60086" type="standard_car" route="WE" depart="140549.536" departLane="random" departSpeed="20" />
    <vehicle id="蓝皖H68C56_60087" type="standard_car" route="NS" depart="140549.661" departLane="random" departSpeed="20" />
    <vehicle id="蓝皖HJH106_60088" type="standard_car" route="WE" depart="140549.886" departLane="random" departSpeed="20" />
    <vehicle id="蓝皖HT0538_60089" type="standard_car" route="NE" depart="140551.85" departLane="random" departSpeed="20" />
    <vehicle id="无车牌_60090" type="standard_car" route="NS" depart="140552.29" departLane="random" departSpeed="20" />
    <vehicle id="蓝皖H02DA8_60091" type="standard_car" route="SW" depart="140552.721" departLane="random" departSpeed="20" />
    <vehicle id="绿皖HDD0389_60092" type="standard_car" route="NS" depart="140555.998" departLane="random" departSpeed="20" />
    <vehicle id="蓝皖HM51N0_60093" type="standard_car" route="WN" depart="140556.4" departLane="random" departSpeed="20" />
    <vehicle id="蓝皖HC8849_60094" type="standard_car" route="SN" depart="140556.737" departLane="random" departSpeed="20" />
    <vehicle id="蓝皖H1U169_60095" type="standard_car" route="SW" depart="140557.567" departLane="random" departSpeed="20" />
    <vehicle id="蓝皖HC9Y69_60096" type="standard_car" route="WE" depart="140558.391" departLane="random" departSpeed="20" />
    <vehicle id="蓝皖HAN801_60097" type="standard_car" route="SN" depart="140558.577" departLane="random" departSpeed="20" />
    <vehicle id="绿皖HD58770_60098" type="standard_car" route="SW" depart="140559.836" departLane="random" departSpeed="20" />
    <vehicle id="蓝皖HH57B2_60099" type="standard_car" route="NS" depart="140560.755" departLane="random" departSpeed="20" />
    <vehicle id="蓝皖A895M1_60100" type="standard_car" route="SW" depart="140561.665" departLane="random" departSpeed="20" />
    <vehicle id="蓝皖HE7970_60101" type="standard_car" route="SN" depart="140562.684" departLane="random" departSpeed="20" />
    <vehicle id="蓝皖AWZ643_60102" type="standard_car" route="WE" depart="140565.938" departLane="random" departSpeed="20" />
    <vehicle id="蓝皖HT1654_60103" type="standard_car" route="SW" depart="140567.473" departLane="random" departSpeed="20" />
    <vehicle id="蓝皖RG2693_60104" type="standard_car" route="SW" depart="140568.303" departLane="random" departSpeed="20" />
    <vehicle id="蓝皖H51888_60105" type="standard_car" route="SN" depart="140571.193" departLane="random" departSpeed="20" />
    <vehicle id="蓝赣GA1G93_60106" type="standard_car" route="SW" depart="140575.453" departLane="random" departSpeed="20" />
    <vehicle id="蓝皖HL658F_60107" type="standard_car" route="WN" depart="140577.225" departLane="random" departSpeed="20" />
    <vehicle id="蓝皖AB02C3_60108" type="standard_car" route="WE" depart="140581.639" departLane="random" departSpeed="20" />
    <vehicle id="蓝皖HL152W_60109" type="standard_car" route="SN" depart="140583.945" departLane="random" departSpeed="20" />
    <vehicle id="蓝皖HF2Z28_60110" type="standard_car" route="NS" depart="140585.026" departLane="random" departSpeed="20" />
    <vehicle id="绿皖HD06462_60111" type="standard_car" route="SW" depart="140585.326" departLane="random" departSpeed="20" />
    <vehicle id="蓝皖H898A3_60112" type="standard_car" route="SN" depart="140586.857" departLane="random" departSpeed="20" />
    <vehicle id="蓝皖H57533_60113" type="standard_car" route="SN" depart="140588.888" departLane="random" departSpeed="20" />
    <vehicle id="绿皖HD25168_60114" type="standard_car" route="EW" depart="140590.25" departLane="random" departSpeed="20" />
    <vehicle id="黄皖H6181学_60115" type="standard_car" route="WN" depart="140597.426" departLane="random" departSpeed="20" />
    <vehicle id="蓝皖H8K883_60116" type="standard_car" route="SN" depart="140600.466" departLane="random" departSpeed="20" />
    <vehicle id="蓝皖HAW788_60117" type="standard_car" route="SN" depart="140600.956" departLane="random" departSpeed="20" />
    <vehicle id="蓝皖H95D50_60118" type="standard_car" route="SW" depart="140603.448" departLane="random" departSpeed="20" />
    <vehicle id="蓝皖H60G61_60119" type="standard_car" route="EW" depart="140604.289" departLane="random" departSpeed="20" />
    <vehicle id="蓝冀AVT320_60120" type="standard_car" route="WN" depart="140607.072" departLane="random" departSpeed="20" />
    <vehicle id="蓝皖HDC656_60121" type="standard_car" route="SN" depart="140609.322" departLane="random" departSpeed="20" />
    <vehicle id="蓝皖H23N82_60122" type="standard_car" route="NS" depart="140610.042" departLane="random" departSpeed="20" />
    <vehicle id="蓝皖HKK770_60123" type="standard_car" route="ES" depart="140610.355" departLane="random" departSpeed="20" />
    <vehicle id="蓝皖B250W3_60124" type="standard_car" route="WE" depart="140611.808" departLane="random" departSpeed="20" />
    <vehicle id="黄沪EL1925_60125" type="standard_car" route="WN" depart="140612.545" departLane="random" departSpeed="20" />
    <vehicle id="绿皖HF06022_60126" type="standard_car" route="NS" depart="140613.753" departLane="random" departSpeed="20" />
    <vehicle id="蓝皖H93D02_60127" type="standard_car" route="WE" depart="140613.958" departLane="random" departSpeed="20" />
    <vehicle id="蓝沪C717BB_60128" type="standard_car" route="WE" depart="140615.769" departLane="random" departSpeed="20" />
    <vehicle id="蓝皖HD919W_60129" type="standard_car" route="NS" depart="140616.204" departLane="random" departSpeed="20" />
    <vehicle id="蓝皖H60B32_60130" type="standard_car" route="NS" depart="140616.774" departLane="random" departSpeed="20" />
    <vehicle id="蓝皖HA6344_60131" type="standard_car" route="ES" depart="140616.747" departLane="random" departSpeed="20" />
    <vehicle id="蓝皖HS83V6_60132" type="standard_car" route="SW" depart="140618.717" departLane="random" departSpeed="20" />
    <vehicle id="蓝皖K61K71_60133" type="standard_car" route="NE" depart="140619.805" departLane="random" departSpeed="20" />
    <vehicle id="绿皖HD46965_60134" type="standard_car" route="NS" depart="140622.376" departLane="random" departSpeed="20" />
    <vehicle id="绿皖HDD0688_60135" type="standard_car" route="WE" depart="140622.121" departLane="random" departSpeed="20" />
    <vehicle id="蓝皖H7Q987_60136" type="standard_car" route="WE" depart="140624.199" departLane="random" departSpeed="20" />
    <vehicle id="蓝皖H2G275_60137" type="standard_car" route="WN" depart="140624.449" departLane="random" departSpeed="20" />
    <vehicle id="蓝皖HZ15U0_60138" type="standard_car" route="WN" depart="140627.08" departLane="random" departSpeed="20" />
    <vehicle id="蓝皖HT0373_60139" type="standard_car" route="WE" depart="140629.151" departLane="random" departSpeed="20" />
    <vehicle id="蓝皖AS66U2_60140" type="standard_car" route="NS" depart="140630.078" departLane="random" departSpeed="20" />
    <vehicle id="蓝皖HG9032_60141" type="standard_car" route="WN" depart="140630.821" departLane="random" departSpeed="20" />
    <vehicle id="蓝皖H5R923_60142" type="standard_car" route="WN" depart="140631.961" departLane="random" departSpeed="20" />
    <vehicle id="无车牌_60143" type="standard_car" route="WN" depart="140635.483" departLane="random" departSpeed="20" />
    <vehicle id="蓝皖HW55S8_60144" type="standard_car" route="WE" depart="140636.793" departLane="random" departSpeed="20" />
    <vehicle id="绿皖HF80471_60145" type="standard_car" route="WE" depart="140637.714" departLane="random" departSpeed="20" />
    <vehicle id="蓝皖H22R82_60146" type="standard_car" route="SW" depart="140640.752" departLane="random" departSpeed="20" />
    <vehicle id="黄豫EW9730_60147" type="standard_car" route="WN" depart="140641.274" departLane="random" departSpeed="20" />
    <vehicle id="蓝皖HK889D_60148" type="standard_car" route="SW" depart="140643.603" departLane="random" departSpeed="20" />
    <vehicle id="蓝皖HT1112_60149" type="standard_car" route="SW" depart="140645.633" departLane="random" departSpeed="20" />
    <vehicle id="蓝皖H3Z376_60150" type="standard_car" route="WE" depart="140647.066" departLane="random" departSpeed="20" />
    <vehicle id="蓝皖N696B1_60151" type="standard_car" route="WE" depart="140648.626" departLane="random" departSpeed="20" />
    <vehicle id="黄皖H33121_60152" type="standard_car" route="WN" depart="140655.017" departLane="random" departSpeed="20" />
    <vehicle id="蓝云V06608_60153" type="standard_car" route="WN" depart="140659.528" departLane="random" departSpeed="20" />
    <vehicle id="蓝皖H771A6_60154" type="standard_car" route="NE" depart="140659.476" departLane="random" departSpeed="20" />
    <vehicle id="蓝皖HS37S1_60155" type="standard_car" route="SW" depart="140662.086" departLane="random" departSpeed="20" />
    <vehicle id="蓝皖H9T362_60156" type="standard_car" route="SN" depart="140662.325" departLane="random" departSpeed="20" />
    <vehicle id="蓝辽B692PD_60157" type="standard_car" route="NS" depart="140667.836" departLane="random" departSpeed="20" />
    <vehicle id="无车牌_60158" type="standard_car" route="WE" depart="140668.089" departLane="random" departSpeed="20" />
    <vehicle id="蓝皖HJC033_60159" type="standard_car" route="SW" depart="140668.436" departLane="random" departSpeed="20" />
    <vehicle id="蓝皖BN6742_60160" type="standard_car" route="SN" depart="140670.115" departLane="random" departSpeed="20" />
    <vehicle id="无车牌_60161" type="standard_car" route="WE" depart="140670.756" departLane="random" departSpeed="20" />
    <vehicle id="蓝皖HC78Y3_60162" type="standard_car" route="SW" depart="140671.425" departLane="random" departSpeed="20" />
    <vehicle id="蓝皖HG2912_60163" type="standard_car" route="SW" depart="140672.825" departLane="random" departSpeed="20" />
    <vehicle id="蓝皖HHY106_60164" type="standard_car" route="NS" depart="140674.764" departLane="random" departSpeed="20" />
    <vehicle id="蓝皖H45L63_60165" type="standard_car" route="SW" depart="140674.695" departLane="random" departSpeed="20" />
    <vehicle id="蓝皖H69720_60166" type="standard_car" route="NS" depart="140679.112" departLane="random" departSpeed="20" />
    <vehicle id="无车牌_60167" type="standard_car" route="EW" depart="140679.203" departLane="random" departSpeed="20" />
    <vehicle id="无车牌_60168" type="standard_car" route="SN" depart="140683.108" departLane="random" departSpeed="20" />
    <vehicle id="蓝皖H22Q21_60169" type="standard_car" route="EW" depart="140683.15" departLane="random" departSpeed="20" />
    <vehicle id="蓝甘L92N16_60170" type="standard_car" route="NS" depart="140683.779" departLane="random" departSpeed="20" />
    <vehicle id="蓝皖HC6788_60171" type="standard_car" route="SN" depart="140685.057" departLane="random" departSpeed="20" />
    <vehicle id="蓝皖AKX526_60172" type="standard_car" route="SN" depart="140687.885" departLane="random" departSpeed="20" />
    <vehicle id="蓝鲁H7QB27_60173" type="standard_car" route="SW" depart="140690.441" departLane="random" departSpeed="20" />
    <vehicle id="无车牌_60174" type="standard_car" route="SW" depart="140692.47" departLane="random" departSpeed="20" />
    <vehicle id="蓝皖HLA991_60175" type="standard_car" route="NS" depart="140693.712" departLane="random" departSpeed="20" />
    <vehicle id="黄皖H23180_60176" type="standard_car" route="SN" depart="140693.549" departLane="random" departSpeed="20" />
    <vehicle id="绿皖HD21976_60177" type="standard_car" route="NE" depart="140695.291" departLane="random" departSpeed="20" />
    <vehicle id="蓝皖HL509C_60178" type="standard_car" route="SW" depart="140695.998" departLane="random" departSpeed="20" />
    <vehicle id="蓝皖AL341Z_60179" type="standard_car" route="EW" depart="140696.301" departLane="random" departSpeed="20" />
    <vehicle id="蓝粤B217EA_60180" type="standard_car" route="NS" depart="140697.499" departLane="random" departSpeed="20" />
    <vehicle id="蓝皖AB819R_60181" type="standard_car" route="WE" depart="140698.182" departLane="random" departSpeed="20" />
    <vehicle id="蓝皖HC1C02_60182" type="standard_car" route="SW" depart="140699.625" departLane="random" departSpeed="20" />
    <vehicle id="绿皖HD01607_60183" type="standard_car" route="WE" depart="140700.07" departLane="random" departSpeed="20" />
    <vehicle id="黄皖HA1575_60184" type="standard_car" route="WE" depart="140700.458" departLane="random" departSpeed="20" />
    <vehicle id="蓝皖H5J108_60185" type="standard_car" route="ES" depart="140700.939" departLane="random" departSpeed="20" />
    <vehicle id="蓝皖HT5337_60186" type="standard_car" route="NS" depart="140701.606" departLane="random" departSpeed="20" />
    <vehicle id="绿皖HD10997_60187" type="standard_car" route="EW" depart="140700.818" departLane="random" departSpeed="20" />
    <vehicle id="无车牌_60188" type="standard_car" route="NS" depart="140702.505" departLane="random" departSpeed="20" />
    <vehicle id="蓝皖HT1120_60189" type="standard_car" route="ES" depart="140704.736" departLane="random" departSpeed="20" />
    <vehicle id="黄皖H16826_60190" type="standard_car" route="EW" depart="140705.146" departLane="random" departSpeed="20" />