<routes>

    <vehicle id="蓝皖H23P95_39966" type="standard_car" route="SW" depart="113626.416" departLane="random" departSpeed="20" />
    <vehicle id="绿皖AAA7208_39967" type="standard_car" route="SW" depart="113629.226" departLane="random" departSpeed="20" />
    <vehicle id="蓝皖HWH637_39968" type="standard_car" route="SW" depart="113629.297" departLane="random" departSpeed="20" />
    <vehicle id="蓝皖HY368T_39969" type="standard_car" route="SW" depart="113632.256" departLane="random" departSpeed="20" />
    <vehicle id="蓝皖H5U532_39970" type="standard_car" route="ES" depart="113635.661" departLane="random" departSpeed="20" />
    <vehicle id="黄皖H09175_39971" type="standard_car" route="EW" depart="113635.922" departLane="random" departSpeed="20" />
    <vehicle id="蓝皖H95L80_39972" type="standard_car" route="SW" depart="113636.056" departLane="random" departSpeed="20" />
    <vehicle id="蓝皖HW6212_39973" type="standard_car" route="SN" depart="113637.057" departLane="random" departSpeed="20" />
    <vehicle id="蓝皖HA9948_39974" type="standard_car" route="SW" depart="113637.785" departLane="random" departSpeed="20" />
    <vehicle id="蓝皖HT1211_39975" type="standard_car" route="SN" depart="113639.566" departLane="random" departSpeed="20" />
    <vehicle id="蓝皖H73Z22_39976" type="standard_car" route="SW" depart="113640.254" departLane="random" departSpeed="20" />
    <vehicle id="黄皖HA4973_39977" type="standard_car" route="SW" depart="113640.464" departLane="random" departSpeed="20" />
    <vehicle id="蓝沪CU997C_39978" type="standard_car" route="SN" depart="113643.364" departLane="random" departSpeed="20" />
    <vehicle id="蓝皖HPA812_39979" type="standard_car" route="SW" depart="113645.112" departLane="random" departSpeed="20" />
    <vehicle id="蓝皖HZH503_39980" type="standard_car" route="SW" depart="113645.372" departLane="random" departSpeed="20" />
    <vehicle id="蓝皖HR9191_39981" type="standard_car" route="SW" depart="113646.791" departLane="random" departSpeed="20" />
    <vehicle id="蓝皖HW383Y_39982" type="standard_car" route="SW" depart="113648.377" departLane="random" departSpeed="20" />
    <vehicle id="蓝皖HTM669_39983" type="standard_car" route="SW" depart="113649.915" departLane="random" departSpeed="20" />
    <vehicle id="蓝皖GCB829_39984" type="standard_car" route="SW" depart="113651.364" departLane="random" departSpeed="20" />
    <vehicle id="黄皖HA2518_39985" type="standard_car" route="SW" depart="113652.004" departLane="random" departSpeed="20" />
    <vehicle id="蓝皖HBW718_39986" type="standard_car" route="SW" depart="113654.802" departLane="random" departSpeed="20" />
    <vehicle id="蓝皖H1D798_39987" type="standard_car" route="NS" depart="113656.665" departLane="random" departSpeed="20" />
    <vehicle id="蓝苏E51E9A_39988" type="standard_car" route="SN" depart="113656.995" departLane="random" departSpeed="20" />
    <vehicle id="蓝皖H89EE9_39989" type="standard_car" route="SW" depart="113657.0" departLane="random" departSpeed="20" />
    <vehicle id="蓝皖H7U079_39990" type="standard_car" route="SW" depart="113658.889" departLane="random" departSpeed="20" />
    <vehicle id="绿皖HDD5033_39991" type="standard_car" route="WE" depart="113659.237" departLane="random" departSpeed="20" />
    <vehicle id="蓝皖HFF500_39992" type="standard_car" route="SW" depart="113661.957" departLane="random" departSpeed="20" />
    <vehicle id="蓝皖H06Q15_39993" type="standard_car" route="SN" depart="113665.27" departLane="random" departSpeed="20" />
    <vehicle id="绿皖HDE7627_39994" type="standard_car" route="SW" depart="113666.464" departLane="random" departSpeed="20" />
    <vehicle id="黄皖H11352_39995" type="standard_car" route="NS" depart="113669.646" departLane="random" departSpeed="20" />
    <vehicle id="蓝皖HW82Y6_39996" type="standard_car" route="SN" depart="113669.787" departLane="random" departSpeed="20" />
    <vehicle id="无车牌_39997" type="standard_car" route="WE" depart="113676.461" departLane="random" departSpeed="20" />
    <vehicle id="蓝皖HLZ255_39998" type="standard_car" route="WE" depart="113675.176" departLane="random" departSpeed="20" />
    <vehicle id="绿皖HD11657_39999" type="standard_car" route="WE" depart="113676.176" departLane="random" departSpeed="20" />
    <vehicle id="蓝皖HH11W2_40000" type="standard_car" route="WE" depart="113677.265" departLane="random" departSpeed="20" />
    <vehicle id="蓝皖HP8929_40001" type="standard_car" route="SN" depart="113679.022" departLane="random" departSpeed="20" />
    <vehicle id="蓝皖GC6876_40002" type="standard_car" route="EW" depart="113679.921" departLane="random" departSpeed="20" />
    <vehicle id="蓝皖A972QZ_40003" type="standard_car" route="WE" depart="113679.804" departLane="random" departSpeed="20" />
    <vehicle id="蓝苏ATH080_40004" type="standard_car" route="SW" depart="113680.916" departLane="random" departSpeed="20" />
    <vehicle id="无车牌_40005" type="standard_car" route="ES" depart="113683.115" departLane="random" departSpeed="20" />
    <vehicle id="蓝皖HCF988_40006" type="standard_car" route="WN" depart="113683.627" departLane="random" departSpeed="20" />
    <vehicle id="蓝皖HB10K2_40007" type="standard_car" route="WE" depart="113682.603" departLane="random" departSpeed="20" />
    <vehicle id="绿皖HF11860_40008" type="standard_car" route="WE" depart="113683.183" departLane="random" departSpeed="20" />
    <vehicle id="蓝浙J3H7J6_40009" type="standard_car" route="WE" depart="113684.787" departLane="random" departSpeed="20" />
    <vehicle id="蓝皖HG8070_40010" type="standard_car" route="SW" depart="113684.524" departLane="random" departSpeed="20" />
    <vehicle id="蓝皖H8Z993_40011" type="standard_car" route="WN" depart="113685.567" departLane="random" departSpeed="20" />
    <vehicle id="蓝苏K365GG_40012" type="standard_car" route="SW" depart="113685.603" departLane="random" departSpeed="20" />
    <vehicle id="蓝皖HFS129_40013" type="standard_car" route="WE" depart="113685.232" departLane="random" departSpeed="20" />
    <vehicle id="蓝皖HK669H_40014" type="standard_car" route="WE" depart="113687.086" departLane="random" departSpeed="20" />
    <vehicle id="绿皖HF12006_40015" type="standard_car" route="WE" depart="113685.783" departLane="random" departSpeed="20" />
    <vehicle id="绿皖HD46050_40016" type="standard_car" route="EW" depart="113687.223" departLane="random" departSpeed="20" />
    <vehicle id="蓝皖A4C616_40017" type="standard_car" route="WE" depart="113686.562" departLane="random" departSpeed="20" />
    <vehicle id="蓝皖HHW521_40018" type="standard_car" route="EW" depart="113688.428" departLane="random" departSpeed="20" />
    <vehicle id="绿皖HD01701_40019" type="standard_car" route="NS" depart="113687.987" departLane="random" departSpeed="20" />
    <vehicle id="蓝皖HE0303_40020" type="standard_car" route="SN" depart="113688.498" departLane="random" departSpeed="20" />
    <vehicle id="蓝皖HP0015_40021" type="standard_car" route="WE" depart="113688.231" departLane="random" departSpeed="20" />
    <vehicle id="蓝皖HW96N2_40022" type="standard_car" route="SW" depart="113689.333" departLane="random" departSpeed="20" />
    <vehicle id="蓝皖HA8222_40023" type="standard_car" route="EW" depart="113690.247" departLane="random" departSpeed="20" />
    <vehicle id="蓝皖HYR407_40024" type="standard_car" route="EW" depart="113690.952" departLane="random" departSpeed="20" />
    <vehicle id="黄皖K5G575_40025" type="standard_car" route="WE" depart="113689.851" departLane="random" departSpeed="20" />
    <vehicle id="黄皖HB3301_40026" type="standard_car" route="WN" depart="113691.515" departLane="random" departSpeed="20" />
    <vehicle id="蓝皖HM50K9_40027" type="standard_car" route="SW" depart="113691.372" departLane="random" departSpeed="20" />
    <vehicle id="蓝皖HS3273_40028" type="standard_car" route="ES" depart="113691.863" departLane="random" departSpeed="20" />
    <vehicle id="蓝皖H33T79_40029" type="standard_car" route="WE" depart="113690.961" departLane="random" departSpeed="20" />
    <vehicle id="蓝皖H77P66_40030" type="standard_car" route="SN" depart="113692.006" departLane="random" departSpeed="20" />
    <vehicle id="蓝皖A06JC7_40031" type="standard_car" route="WE" depart="113692.361" departLane="random" departSpeed="20" />
    <vehicle id="黄皖KR1695_40032" type="standard_car" route="NS" depart="113693.536" departLane="random" departSpeed="20" />
    <vehicle id="蓝皖H63M16_40033" type="standard_car" route="NE" depart="113694.79" departLane="random" departSpeed="20" />
    <vehicle id="蓝皖HX3660_40034" type="standard_car" route="WE" depart="113695.395" departLane="random" departSpeed="20" />
    <vehicle id="蓝皖HT0669_40035" type="standard_car" route="SW" depart="113695.171" departLane="random" departSpeed="20" />
    <vehicle id="蓝皖H5F606_40036" type="standard_car" route="WN" depart="113695.474" departLane="random" departSpeed="20" />
    <vehicle id="蓝皖HU123X_40037" type="standard_car" route="WE" depart="113694.801" departLane="random" departSpeed="20" />
    <vehicle id="蓝皖H81K12_40038" type="standard_car" route="EW" depart="113696.474" departLane="random" departSpeed="20" />
    <vehicle id="蓝赣HW1603_40039" type="standard_car" route="EW" depart="113698.033" departLane="random" departSpeed="20" />
    <vehicle id="无车牌_40040" type="standard_car" route="EW" depart="113698.633" departLane="random" departSpeed="20" />
    <vehicle id="蓝皖H70V61_40041" type="standard_car" route="SN" depart="113698.235" departLane="random" departSpeed="20" />
    <vehicle id="无车牌_40042" type="standard_car" route="SN" depart="113699.211" departLane="random" departSpeed="20" />
    <vehicle id="蓝皖RK6696_40043" type="standard_car" route="ES" depart="113699.411" departLane="random" departSpeed="20" />
    <vehicle id="蓝皖HE3083_40044" type="standard_car" route="WN" depart="113700.044" departLane="random" departSpeed="20" />
    <vehicle id="蓝皖H5E209_40045" type="standard_car" route="SN" depart="113699.715" departLane="random" departSpeed="20" />
    <vehicle id="蓝皖H37J53_40046" type="standard_car" route="WE" depart="113699.19" departLane="random" departSpeed="20" />
    <vehicle id="黄皖H07061_40047" type="standard_car" route="WE" depart="113699.239" departLane="random" departSpeed="20" />
    <vehicle id="蓝皖R28228_40048" type="standard_car" route="WE" depart="113701.159" departLane="random" departSpeed="20" />
    <vehicle id="蓝皖HG9561_40049" type="standard_car" route="SW" depart="113702.38" departLane="random" departSpeed="20" />
    <vehicle id="蓝皖HV1323_40050" type="standard_car" route="WE" depart="113702.798" departLane="random" departSpeed="20" />
    <vehicle id="黄皖HA5801_40051" type="standard_car" route="WN" depart="113705.122" departLane="random" departSpeed="20" />
    <vehicle id="蓝皖H723C5_40052" type="standard_car" route="WE" depart="113705.434" departLane="random" departSpeed="20" />
    <vehicle id="蓝皖A0HA57_40053" type="standard_car" route="SN" depart="113705.469" departLane="random" departSpeed="20" />
    <vehicle id="蓝皖HC83J5_40054" type="standard_car" route="SN" depart="113705.583" departLane="random" departSpeed="20" />
    <vehicle id="蓝皖HP82M7_40055" type="standard_car" route="SW" depart="113705.799" departLane="random" departSpeed="20" />
    <vehicle id="蓝皖H6H799_40056" type="standard_car" route="WE" depart="113708.466" departLane="random" departSpeed="20" />
    <vehicle id="蓝皖H52Y27_40057" type="standard_car" route="WE" depart="113710.146" departLane="random" departSpeed="20" />
    <vehicle id="蓝皖HA7296_40058" type="standard_car" route="EW" depart="113711.917" departLane="random" departSpeed="20" />
    <vehicle id="蓝皖HTN558_40059" type="standard_car" route="SN" depart="113711.631" departLane="random" departSpeed="20" />
    <vehicle id="蓝皖H87CJ8_40060" type="standard_car" route="WE" depart="113712.926" departLane="random" departSpeed="20" />
    <vehicle id="蓝冀R0Q7J5_40061" type="standard_car" route="WE" depart="113714.859" departLane="random" departSpeed="20" />
    <vehicle id="蓝贵C7S181_40062" type="standard_car" route="NS" depart="113714.495" departLane="random" departSpeed="20" />
    <vehicle id="蓝皖H9R007_40063" type="standard_car" route="SN" depart="113714.7" departLane="random" departSpeed="20" />
    <vehicle id="蓝皖H3F087_40064" type="standard_car" route="SN" depart="113716.375" departLane="random" departSpeed="20" />
    <vehicle id="蓝皖H31T07_40065" type="standard_car" route="WE" depart="113717.004" departLane="random" departSpeed="20" />
    <vehicle id="蓝皖HS619D_40066" type="standard_car" route="SN" depart="113717.959" departLane="random" departSpeed="20" />
    <vehicle id="蓝皖H69599_40067" type="standard_car" route="WN" depart="113719.368" departLane="random" departSpeed="20" />
    <vehicle id="蓝皖H5K305_40068" type="standard_car" route="ES" depart="113720.104" departLane="random" departSpeed="20" />
    <vehicle id="蓝皖H0Z928_40069" type="standard_car" route="NS" depart="113720.048" departLane="random" departSpeed="20" />
    <vehicle id="蓝浙C898B9_40070" type="standard_car" route="WE" depart="113719.434" departLane="random" departSpeed="20" />
    <vehicle id="黄皖H18101_40071" type="standard_car" route="WE" depart="113719.993" departLane="random" departSpeed="20" />
    <vehicle id="蓝皖HU7097_40072" type="standard_car" route="SN" depart="113721.168" departLane="random" departSpeed="20" />
    <vehicle id="蓝皖H263D0_40073" type="standard_car" route="SW" depart="113722.303" departLane="random" departSpeed="20" />
    <vehicle id="蓝皖HR8Y18_40074" type="standard_car" route="SN" depart="113723.227" departLane="random" departSpeed="20" />
    <vehicle id="蓝皖HT1626_40075" type="standard_car" route="NS" depart="113725.356" departLane="random" departSpeed="20" />
    <vehicle id="黄皖H7773学_40076" type="standard_car" route="SN" depart="113725.242" departLane="random" departSpeed="20" />
    <vehicle id="黄皖H50899_40077" type="standard_car" route="WE" depart="113726.765" departLane="random" departSpeed="20" />
    <vehicle id="蓝皖HE0267_40078" type="standard_car" route="SW" depart="113726.302" departLane="random" departSpeed="20" />
    <vehicle id="蓝皖HMX808_40079" type="standard_car" route="SN" depart="113726.266" departLane="random" departSpeed="20" />
    <vehicle id="无车牌_40080" type="standard_car" route="NS" depart="113729.535" departLane="random" departSpeed="20" />
    <vehicle id="黄皖H08822D_40081" type="standard_car" route="SN" depart="113730.394" departLane="random" departSpeed="20" />
    <vehicle id="蓝皖H5K220_40082" type="standard_car" route="WN" depart="113736.003" departLane="random" departSpeed="20" />
    <vehicle id="无车牌_40083" type="standard_car" route="SN" depart="113737.704" departLane="random" departSpeed="20" />
    <vehicle id="蓝皖HG3120_40084" type="standard_car" route="NS" depart="113738.785" departLane="random" departSpeed="20" />
    <vehicle id="黄皖H07357_40085" type="standard_car" route="WE" depart="113740.538" departLane="random" departSpeed="20" />
    <vehicle id="蓝皖HN58W1_40086" type="standard_car" route="SN" depart="113744.072" departLane="random" departSpeed="20" />
    <vehicle id="蓝皖HZ219A_40087" type="standard_car" route="NE" depart="113747.853" departLane="random" departSpeed="20" />
    <vehicle id="蓝皖HP3737_40088" type="standard_car" route="SW" depart="113749.807" departLane="random" departSpeed="20" />
    <vehicle id="蓝皖HVV516_40089" type="standard_car" route="SW" depart="113750.927" departLane="random" departSpeed="20" />
    <vehicle id="蓝皖HD6503_40090" type="standard_car" route="SW" depart="113752.726" departLane="random" departSpeed="20" />
    <vehicle id="蓝皖RT1056_40091" type="standard_car" route="SW" depart="113754.037" departLane="random" departSpeed="20" />
    <vehicle id="黄皖HA7351_40092" type="standard_car" route="EW" depart="113757.609" departLane="random" departSpeed="20" />
    <vehicle id="蓝皖HYN500_40093" type="standard_car" route="SW" depart="113760.795" departLane="random" departSpeed="20" />
    <vehicle id="绿皖HF56819_40094" type="standard_car" route="ES" depart="113761.166" departLane="random" departSpeed="20" />
    <vehicle id="蓝皖H8G111_40095" type="standard_car" route="SW" depart="113762.105" departLane="random" departSpeed="20" />
    <vehicle id="无车牌_40096" type="standard_car" route="SW" depart="113762.844" departLane="random" departSpeed="20" />
    <vehicle id="蓝皖H74162_40097" type="standard_car" route="SW" depart="113765.534" departLane="random" departSpeed="20" />
    <vehicle id="蓝皖H35T92_40098" type="standard_car" route="SW" depart="113766.314" departLane="random" departSpeed="20" />
    <vehicle id="蓝皖H73B72_40099" type="standard_car" route="SN" depart="113767.578" departLane="random" departSpeed="20" />
    <vehicle id="绿皖HF98465_40100" type="standard_car" route="SW" depart="113768.634" departLane="random" departSpeed="20" />
    <vehicle id="蓝皖H6M768_40101" type="standard_car" route="SW" depart="113771.104" departLane="random" departSpeed="20" />
    <vehicle id="蓝皖H19A35_40102" type="standard_car" route="SW" depart="113772.144" departLane="random" departSpeed="20" />
    <vehicle id="蓝皖H52C53_40103" type="standard_car" route="NE" depart="113772.599" departLane="random" departSpeed="20" />
    <vehicle id="蓝皖HS6306_40104" type="standard_car" route="SW" depart="113773.553" departLane="random" departSpeed="20" />
    <vehicle id="蓝皖HZW948_40105" type="standard_car" route="NS" depart="113774.598" departLane="random" departSpeed="20" />
    <vehicle id="蓝皖HSF911_40106" type="standard_car" route="SW" depart="113775.534" departLane="random" departSpeed="20" />
    <vehicle id="蓝皖HMY386_40107" type="standard_car" route="SN" depart="113777.128" departLane="random" departSpeed="20" />
    <vehicle id="蓝皖H95DB1_40108" type="standard_car" route="SW" depart="113779.644" departLane="random" departSpeed="20" />
    <vehicle id="蓝皖H256D0_40109" type="standard_car" route="EW" depart="113780.415" departLane="random" departSpeed="20" />
    <vehicle id="白皖H9181警_40110" type="standard_car" route="NS" depart="113780.319" departLane="random" departSpeed="20" />
    <vehicle id="蓝皖HM4328_40111" type="standard_car" route="EW" depart="113781.558" departLane="random" departSpeed="20" />
    <vehicle id="蓝皖G65044_40112" type="standard_car" route="NS" depart="113782.589" departLane="random" departSpeed="20" />
    <vehicle id="蓝皖HA63W6_40113" type="standard_car" route="NS" depart="113782.801" departLane="random" departSpeed="20" />
    <vehicle id="蓝皖HY81S6_40114" type="standard_car" route="SN" depart="113783.739" departLane="random" departSpeed="20" />
    <vehicle id="蓝皖HN1870_40115" type="standard_car" route="ES" depart="113785.005" departLane="random" departSpeed="20" />
    <vehicle id="蓝皖HU92H2_40116" type="standard_car" route="NS" depart="113785.02" departLane="random" departSpeed="20" />
    <vehicle id="蓝皖H2E761_40117" type="standard_car" route="EW" depart="113787.589" departLane="random" departSpeed="20" />
    <vehicle id="蓝皖H86J23_40118" type="standard_car" route="NS" depart="113788.813" departLane="random" departSpeed="20" />
    <vehicle id="绿皖AFC1797_40119" type="standard_car" route="SN" depart="113789.45" departLane="random" departSpeed="20" />
    <vehicle id="蓝皖H2T851_40120" type="standard_car" route="ES" depart="113790.156" departLane="random" departSpeed="20" />
    <vehicle id="蓝皖HV078V_40121" type="standard_car" route="SN" depart="113790.761" departLane="random" departSpeed="20" />
    <vehicle id="蓝皖HHZ711_40122" type="standard_car" route="EW" depart="113791.707" departLane="random" departSpeed="20" />
    <vehicle id="蓝皖H84800_40123" type="standard_car" route="WE" depart="113791.056" departLane="random" departSpeed="20" />
    <vehicle id="绿皖HF61533_40124" type="standard_car" route="EW" depart="113793.139" departLane="random" departSpeed="20" />
    <vehicle id="蓝皖HS5387_40125" type="standard_car" route="NS" depart="113793.0" departLane="random" departSpeed="20" />
    <vehicle id="无车牌_40126" type="standard_car" route="WE" depart="113794.676" departLane="random" departSpeed="20" />
    <vehicle id="蓝皖H19Q56_40127" type="standard_car" route="EW" depart="113796.689" departLane="random" departSpeed="20" />
    <vehicle id="蓝皖HF2660_40128" type="standard_car" route="ES" depart="113798.635" departLane="random" departSpeed="20" />
    <vehicle id="黄皖H7166学_40129" type="standard_car" route="NE" depart="113797.951" departLane="random" departSpeed="20" />
    <vehicle id="蓝皖HU9793_40130" type="standard_car" route="EW" depart="113800.035" departLane="random" departSpeed="20" />
    <vehicle id="蓝皖AH0318_40131" type="standard_car" route="NS" depart="113802.069" departLane="random" departSpeed="20" />
    <vehicle id="绿皖HDA0028_40132" type="standard_car" route="WE" depart="113801.274" departLane="random" departSpeed="20" />
    <vehicle id="蓝皖H71P87_40133" type="standard_car" route="EW" depart="113804.404" departLane="random" departSpeed="20" />
    <vehicle id="蓝皖HL3231_40134" type="standard_car" route="EW" depart="113805.803" departLane="random" departSpeed="20" />
    <vehicle id="蓝皖HNB168_40135" type="standard_car" route="WE" depart="113805.624" departLane="random" departSpeed="20" />
    <vehicle id="黄皖H04188D_40136" type="standard_car" route="WE" depart="113807.911" departLane="random" departSpeed="20" />
    <vehicle id="黄皖HB3758_40137" type="standard_car" route="SN" depart="113809.435" departLane="random" departSpeed="20" />
    <vehicle id="黄皖AM0377_40138" type="standard_car" route="EW" depart="113810.395" departLane="random" departSpeed="20" />
    <vehicle id="蓝皖HK088L_40139" type="standard_car" route="SN" depart="113810.655" departLane="random" departSpeed="20" />
    <vehicle id="蓝皖H27T31_40140" type="standard_car" route="WE" depart="113811.495" departLane="random" departSpeed="20" />
    <vehicle id="蓝皖B9Y535_40141" type="standard_car" route="SW" depart="113811.88" departLane="random" departSpeed="20" />
    <vehicle id="蓝皖H0J331_40142" type="standard_car" route="WN" depart="113813.364" departLane="random" departSpeed="20" />
    <vehicle id="蓝皖HWJ076_40143" type="standard_car" route="SN" depart="113812.924" departLane="random" departSpeed="20" />
    <vehicle id="蓝皖HGH080_40144" type="standard_car" route="SN" depart="113813.37" departLane="random" departSpeed="20" />
    <vehicle id="蓝皖HS9R98_40145" type="standard_car" route="EW" depart="113814.133" departLane="random" departSpeed="20" />
    <vehicle id="蓝鄂B67433_40146" type="standard_car" route="SW" depart="113813.444" departLane="random" departSpeed="20" />
    <vehicle id="蓝皖HD758D_40147" type="standard_car" route="WE" depart="113813.209" departLane="random" departSpeed="20" />
    <vehicle id="无车牌_40148" type="standard_car" route="SN" depart="113814.543" departLane="random" departSpeed="20" />
    <vehicle id="蓝皖H21U21_40149" type="standard_car" route="EW" depart="113815.243" departLane="random" departSpeed="20" />
    <vehicle id="蓝皖HK29P2_40150" type="standard_car" route="EW" depart="113817.988" departLane="random" departSpeed="20" />
    <vehicle id="蓝皖HB0370_40151" type="standard_car" route="SN" depart="113819.811" departLane="random" departSpeed="20" />
    <vehicle id="蓝皖HWY900_40152" type="standard_car" route="WN" depart="113821.9" departLane="random" departSpeed="20" />
    <vehicle id="蓝皖HT0858_40153" type="standard_car" route="ES" depart="113822.256" departLane="random" departSpeed="20" />
    <vehicle id="无车牌_40154" type="standard_car" route="SW" depart="113822.226" departLane="random" departSpeed="20" />
    <vehicle id="蓝皖HK6097_40155" type="standard_car" route="SN" depart="113822.455" departLane="random" departSpeed="20" />
    <vehicle id="蓝皖HF77T3_40156" type="standard_car" route="SW" depart="113822.456" departLane="random" departSpeed="20" />
    <vehicle id="蓝皖HW367Y_40157" type="standard_car" route="EW" depart="113826.054" departLane="random" departSpeed="20" />
    <vehicle id="无车牌_40158" type="standard_car" route="EW" depart="113826.777" departLane="random" departSpeed="20" />
    <vehicle id="蓝皖HU7181_40159" type="standard_car" route="SN" depart="113825.888" departLane="random" departSpeed="20" />
    <vehicle id="蓝皖HG128C_40160" type="standard_car" route="SW" depart="113827.113" departLane="random" departSpeed="20" />
    <vehicle id="蓝皖HA7766_40161" type="standard_car" route="EW" depart="113829.626" departLane="random" departSpeed="20" />
    <vehicle id="绿皖ADB8776_40162" type="standard_car" route="ES" depart="113830.271" departLane="random" departSpeed="20" />
    <vehicle id="绿皖HD30196_40163" type="standard_car" route="SW" depart="113830.081" departLane="random" departSpeed="20" />
    <vehicle id="蓝皖HM6971_40164" type="standard_car" route="EW" depart="113830.855" departLane="random" departSpeed="20" />
    <vehicle id="绿皖HD29181_40165" type="standard_car" route="WE" depart="113830.141" departLane="random" departSpeed="20" />
    <vehicle id="蓝皖H99R17_40166" type="standard_car" route="ES" depart="113831.941" departLane="random" departSpeed="20" />
    <vehicle id="蓝皖HMM206_40167" type="standard_car" route="SW" depart="113833.409" departLane="random" departSpeed="20" />
    <vehicle id="绿皖HDG9538_40168" type="standard_car" route="WE" depart="113832.539" departLane="random" departSpeed="20" />
    <vehicle id="蓝皖SWZ776_40169" type="standard_car" route="WN" depart="113833.983" departLane="random" departSpeed="20" />
    <vehicle id="蓝皖HX19A8_40170" type="standard_car" route="SW" depart="113834.039" departLane="random" departSpeed="20" />
    <vehicle id="绿皖HDG7654_40171" type="standard_car" route="WE" depart="113833.609" departLane="random" departSpeed="20" />
    <vehicle id="蓝皖H83A05_40172" type="standard_car" route="SN" depart="113835.222" departLane="random" departSpeed="20" />
    <vehicle id="蓝皖HT98N3_40173" type="standard_car" route="WE" depart="113834.629" departLane="random" departSpeed="20" />
    <vehicle id="绿皖HD77886_40174" type="standard_car" route="SW" depart="113836.857" departLane="random" departSpeed="20" />
    <vehicle id="蓝皖HZS696_40175" type="standard_car" route="SN" depart="113836.901" departLane="random" departSpeed="20" />
    <vehicle id="黄皖H13579_40176" type="standard_car" route="WE" depart="113836.866" departLane="random" departSpeed="20" />
    <vehicle id="无车牌_40177" type="standard_car" route="NS" depart="113842.628" departLane="random" departSpeed="20" />
    <vehicle id="蓝皖HA3530_40178" type="standard_car" route="SN" depart="113844.926" departLane="random" departSpeed="20" />
    <vehicle id="蓝皖D25888_40179" type="standard_car" route="WN" depart="113846.575" departLane="random" departSpeed="20" />
    <vehicle id="蓝皖HF0683_40180" type="standard_car" route="SN" depart="113851.313" departLane="random" departSpeed="20" />
    <vehicle id="蓝津AHD748_40181" type="standard_car" route="SN" depart="113853.249" departLane="random" departSpeed="20" />
    <vehicle id="蓝皖AL22D3_40182" type="standard_car" route="WN" depart="113855.002" departLane="random" departSpeed="20" />
    <vehicle id="黄皖H28678_40183" type="standard_car" route="WE" depart="113869.908" departLane="random" departSpeed="20" />
    <vehicle id="黄皖H6171学_40184" type="standard_car" route="NS" depart="113870.008" departLane="random" departSpeed="20" />
    <vehicle id="蓝皖H92AQ9_40185" type="standard_car" route="SN" depart="113869.648" departLane="random" departSpeed="20" />
    <vehicle id="黄皖H1001学_40186" type="standard_car" route="NE" depart="113870.971" departLane="random" departSpeed="20" />
    <vehicle id="蓝皖HH099V_40187" type="standard_car" route="SN" depart="113872.199" departLane="random" departSpeed="20" />
    <vehicle id="蓝皖H99L59_40188" type="standard_car" route="SN" depart="113874.309" departLane="random" departSpeed="20" />
    <vehicle id="蓝皖H5E209_40189" type="standard_car" route="NS" depart="113875.159" departLane="random" departSpeed="20" />
    <vehicle id="蓝皖HH06L8_40190" type="standard_car" route="SN" depart="113877.4" departLane="random" departSpeed="20" />
    <vehicle id="蓝皖H99902_40191" type="standard_car" route="SN" depart="113878.046" departLane="random" departSpeed="20" />
    <vehicle id="蓝皖HV9285_40192" type="standard_car" route="SW" depart="113878.836" departLane="random" departSpeed="20" />
    <vehicle id="蓝皖AE8K38_40193" type="standard_car" route="SW" depart="113879.226" departLane="random" departSpeed="20" />
    <vehicle id="蓝皖H3U798_40194" type="standard_car" route="EW" depart="113881.031" departLane="random" departSpeed="20" />
    <vehicle id="绿皖HD13383_40195" type="standard_car" route="SW" depart="113882.007" departLane="random" departSpeed="20" />
    <vehicle id="蓝皖HR077R_40196" type="standard_car" route="EW" depart="113882.138" departLane="random" departSpeed="20" />
    <vehicle id="蓝皖H6G191_40197" type="standard_car" route="SW" depart="113882.657" departLane="random" departSpeed="20" />
    <vehicle id="蓝皖H86N90_40198" type="standard_car" route="EW" depart="113885.403" departLane="random" departSpeed="20" />
    <vehicle id="蓝皖H9U906_40199" type="standard_car" route="EW" depart="113885.663" departLane="random" departSpeed="20" />
    <vehicle id="蓝皖HC5123_40200" type="standard_car" route="SW" depart="113886.149" departLane="random" departSpeed="20" />
    <vehicle id="蓝苏D818PL_40201" type="standard_car" route="EW" depart="113886.97" departLane="random" departSpeed="20" />
    <vehicle id="蓝皖H381C9_40202" type="standard_car" route="SN" depart="113887.433" departLane="random" departSpeed="20" />
    <vehicle id="蓝皖H39Z61_40203" type="standard_car" route="SW" depart="113887.829" departLane="random" departSpeed="20" />
    <vehicle id="蓝皖HM75G8_40204" type="standard_car" route="NS" depart="113888.244" departLane="random" departSpeed="20" />
    <vehicle id="蓝皖HJ129J_40205" type="standard_car" route="SW" depart="113888.309" departLane="random" departSpeed="20" />
    <vehicle id="蓝皖HL601X_40206" type="standard_car" route="SW" depart="113890.76" departLane="random" departSpeed="20" />
    <vehicle id="蓝皖HTN008_40207" type="standard_car" route="EW" depart="113891.824" departLane="random" departSpeed="20" />