<flows>
    <flow id="0" from="1to5" to="15to3" begin="0" end="0" number="400"/>
    <flow id="1" from="1to5" to="17to4" begin="0" end="0" number="800"/>
    <flow id="2" from="2to7" to="15to3" begin="0" end="0" number="600"/>
    <flow id="3" from="2to7" to="17to4" begin="0" end="0" number="200"/>
</flows>
