<flows>
    <flow id="0" from="1to5" to="15to3" begin="0" end="3600" number="140"/>
    <flow id="1" from="1to5" to="17to4" begin="0" end="3600" number="280"/>
    <flow id="2" from="2to7" to="15to3" begin="0" end="3600" number="210"/>
    <flow id="3" from="2to7" to="17to4" begin="0" end="3600" number="70"/>
</flows>
