<?xml version="1.0" encoding="UTF-8"?>
<net version="1.20" junctionCornerDetail="5" limitTurnSpeed="5.50" xmlns:xsi="http://www.w3.org/2001/XMLSchema-instance" xsi:noNamespaceSchemaLocation="http://sumo.dlr.de/xsd/net_file.xsd">
  <edge id="intersection_1_1_0" function="internal">
    <lane id="intersection_1_1_0_0" index="0" speed="3.93" length="2.19" shape=""/>
  </edge>
  <edge id="intersection_1_1_1" function="internal">
    <lane id="intersection_1_1_1_0" index="0" speed="3.93" length="2.19" shape=""/>
  </edge>
  <edge id="intersection_1_1_2" function="internal">
    <lane id="intersection_1_1_2_0" index="0" speed="3.93" length="2.19" shape=""/>
  </edge>
  <edge id="intersection_1_1_3" function="internal">
    <lane id="intersection_1_1_3_0" index="0" speed="3.93" length="2.19" shape=""/>
  </edge>
  <edge id="intersection_1_1_4" function="internal">
    <lane id="intersection_1_1_4_0" index="0" speed="3.93" length="2.19" shape=""/>
  </edge>
  <edge id="intersection_1_1_5" function="internal">
    <lane id="intersection_1_1_5_0" index="0" speed="3.93" length="2.19" shape=""/>
  </edge>
  <edge id="intersection_1_1_6" function="internal">
    <lane id="intersection_1_1_6_0" index="0" speed="3.93" length="2.19" shape=""/>
  </edge>
  <edge id="intersection_1_1_7" function="internal">
    <lane id="intersection_1_1_7_0" index="0" speed="3.93" length="2.19" shape=""/>
  </edge>
  <edge id="intersection_1_1_8" function="internal">
    <lane id="intersection_1_1_8_0" index="0" speed="3.93" length="2.19" shape=""/>
  </edge>
  <edge id="intersection_1_1_9" function="internal">
    <lane id="intersection_1_1_9_0" index="0" speed="3.93" length="2.19" shape=""/>
  </edge>
  <edge id="intersection_1_1_10" function="internal">
    <lane id="intersection_1_1_10_0" index="0" speed="3.93" length="2.19" shape=""/>
  </edge>
  <edge id="intersection_1_1_11" function="internal">
    <lane id="intersection_1_1_11_0" index="0" speed="3.93" length="2.19" shape=""/>
  </edge>
  <edge id="intersection_1_1_12" function="internal">
    <lane id="intersection_1_1_12_0" index="0" speed="3.93" length="2.19" shape=""/>
  </edge>
  <edge id="intersection_1_1_13" function="internal">
    <lane id="intersection_1_1_13_0" index="0" speed="3.93" length="2.19" shape=""/>
  </edge>
  <edge id="intersection_1_1_14" function="internal">
    <lane id="intersection_1_1_14_0" index="0" speed="3.93" length="2.19" shape=""/>
  </edge>
  <edge id="intersection_1_1_15" function="internal">
    <lane id="intersection_1_1_15_0" index="0" speed="3.93" length="2.19" shape=""/>
  </edge>
  <edge id="intersection_1_1_16" function="internal">
    <lane id="intersection_1_1_16_0" index="0" speed="3.93" length="2.19" shape=""/>
  </edge>
  <edge id="intersection_1_1_17" function="internal">
    <lane id="intersection_1_1_17_0" index="0" speed="3.93" length="2.19" shape=""/>
  </edge>
  <edge id="intersection_1_1_18" function="internal">
    <lane id="intersection_1_1_18_0" index="0" speed="3.93" length="2.19" shape=""/>
  </edge>
  <edge id="intersection_1_1_19" function="internal">
    <lane id="intersection_1_1_19_0" index="0" speed="3.93" length="2.19" shape=""/>
  </edge>
  <edge id="intersection_1_1_20" function="internal">
    <lane id="intersection_1_1_20_0" index="0" speed="3.93" length="2.19" shape=""/>
  </edge>
  <edge id="intersection_1_1_21" function="internal">
    <lane id="intersection_1_1_21_0" index="0" speed="3.93" length="2.19" shape=""/>
  </edge>
  <edge id="intersection_1_1_22" function="internal">
    <lane id="intersection_1_1_22_0" index="0" speed="3.93" length="2.19" shape=""/>
  </edge>
  <edge id="intersection_1_1_23" function="internal">
    <lane id="intersection_1_1_23_0" index="0" speed="3.93" length="2.19" shape=""/>
  </edge>
  <edge id="intersection_1_1_24" function="internal">
    <lane id="intersection_1_1_24_0" index="0" speed="3.93" length="2.19" shape=""/>
  </edge>
  <edge id="intersection_1_1_25" function="internal">
    <lane id="intersection_1_1_25_0" index="0" speed="3.93" length="2.19" shape=""/>
  </edge>
  <edge id="intersection_1_1_26" function="internal">
    <lane id="intersection_1_1_26_0" index="0" speed="3.93" length="2.19" shape=""/>
  </edge>
  <edge id="intersection_1_1_27" function="internal">
    <lane id="intersection_1_1_27_0" index="0" speed="3.93" length="2.19" shape=""/>
  </edge>
  <edge id="intersection_1_1_28" function="internal">
    <lane id="intersection_1_1_28_0" index="0" speed="3.93" length="2.19" shape=""/>
  </edge>
  <edge id="intersection_1_1_29" function="internal">
    <lane id="intersection_1_1_29_0" index="0" speed="3.93" length="2.19" shape=""/>
  </edge>
  <edge id="intersection_1_1_30" function="internal">
    <lane id="intersection_1_1_30_0" index="0" speed="3.93" length="2.19" shape=""/>
  </edge>
  <edge id="intersection_1_1_31" function="internal">
    <lane id="intersection_1_1_31_0" index="0" speed="3.93" length="2.19" shape=""/>
  </edge>
  <edge id="intersection_1_1_32" function="internal">
    <lane id="intersection_1_1_32_0" index="0" speed="3.93" length="2.19" shape=""/>
  </edge>
  <edge id="intersection_1_1_33" function="internal">
    <lane id="intersection_1_1_33_0" index="0" speed="3.93" length="2.19" shape=""/>
  </edge>
  <edge id="intersection_1_1_34" function="internal">
    <lane id="intersection_1_1_34_0" index="0" speed="3.93" length="2.19" shape=""/>
  </edge>
  <edge id="intersection_1_1_35" function="internal">
    <lane id="intersection_1_1_35_0" index="0" speed="3.93" length="2.19" shape=""/>
  </edge>
  <edge id="intersection_1_2_0" function="internal">
    <lane id="intersection_1_2_0_0" index="0" speed="3.93" length="2.19" shape=""/>
  </edge>
  <edge id="intersection_1_2_1" function="internal">
    <lane id="intersection_1_2_1_0" index="0" speed="3.93" length="2.19" shape=""/>
  </edge>
  <edge id="intersection_1_2_2" function="internal">
    <lane id="intersection_1_2_2_0" index="0" speed="3.93" length="2.19" shape=""/>
  </edge>
  <edge id="intersection_1_2_3" function="internal">
    <lane id="intersection_1_2_3_0" index="0" speed="3.93" length="2.19" shape=""/>
  </edge>
  <edge id="intersection_1_2_4" function="internal">
    <lane id="intersection_1_2_4_0" index="0" speed="3.93" length="2.19" shape=""/>
  </edge>
  <edge id="intersection_1_2_5" function="internal">
    <lane id="intersection_1_2_5_0" index="0" speed="3.93" length="2.19" shape=""/>
  </edge>
  <edge id="intersection_1_2_6" function="internal">
    <lane id="intersection_1_2_6_0" index="0" speed="3.93" length="2.19" shape=""/>
  </edge>
  <edge id="intersection_1_2_7" function="internal">
    <lane id="intersection_1_2_7_0" index="0" speed="3.93" length="2.19" shape=""/>
  </edge>
  <edge id="intersection_1_2_8" function="internal">
    <lane id="intersection_1_2_8_0" index="0" speed="3.93" length="2.19" shape=""/>
  </edge>
  <edge id="intersection_1_2_9" function="internal">
    <lane id="intersection_1_2_9_0" index="0" speed="3.93" length="2.19" shape=""/>
  </edge>
  <edge id="intersection_1_2_10" function="internal">
    <lane id="intersection_1_2_10_0" index="0" speed="3.93" length="2.19" shape=""/>
  </edge>
  <edge id="intersection_1_2_11" function="internal">
    <lane id="intersection_1_2_11_0" index="0" speed="3.93" length="2.19" shape=""/>
  </edge>
  <edge id="intersection_1_2_12" function="internal">
    <lane id="intersection_1_2_12_0" index="0" speed="3.93" length="2.19" shape=""/>
  </edge>
  <edge id="intersection_1_2_13" function="internal">
    <lane id="intersection_1_2_13_0" index="0" speed="3.93" length="2.19" shape=""/>
  </edge>
  <edge id="intersection_1_2_14" function="internal">
    <lane id="intersection_1_2_14_0" index="0" speed="3.93" length="2.19" shape=""/>
  </edge>
  <edge id="intersection_1_2_15" function="internal">
    <lane id="intersection_1_2_15_0" index="0" speed="3.93" length="2.19" shape=""/>
  </edge>
  <edge id="intersection_1_2_16" function="internal">
    <lane id="intersection_1_2_16_0" index="0" speed="3.93" length="2.19" shape=""/>
  </edge>
  <edge id="intersection_1_2_17" function="internal">
    <lane id="intersection_1_2_17_0" index="0" speed="3.93" length="2.19" shape=""/>
  </edge>
  <edge id="intersection_1_2_18" function="internal">
    <lane id="intersection_1_2_18_0" index="0" speed="3.93" length="2.19" shape=""/>
  </edge>
  <edge id="intersection_1_2_19" function="internal">
    <lane id="intersection_1_2_19_0" index="0" speed="3.93" length="2.19" shape=""/>
  </edge>
  <edge id="intersection_1_2_20" function="internal">
    <lane id="intersection_1_2_20_0" index="0" speed="3.93" length="2.19" shape=""/>
  </edge>
  <edge id="intersection_1_2_21" function="internal">
    <lane id="intersection_1_2_21_0" index="0" speed="3.93" length="2.19" shape=""/>
  </edge>
  <edge id="intersection_1_2_22" function="internal">
    <lane id="intersection_1_2_22_0" index="0" speed="3.93" length="2.19" shape=""/>
  </edge>
  <edge id="intersection_1_2_23" function="internal">
    <lane id="intersection_1_2_23_0" index="0" speed="3.93" length="2.19" shape=""/>
  </edge>
  <edge id="intersection_1_2_24" function="internal">
    <lane id="intersection_1_2_24_0" index="0" speed="3.93" length="2.19" shape=""/>
  </edge>
  <edge id="intersection_1_2_25" function="internal">
    <lane id="intersection_1_2_25_0" index="0" speed="3.93" length="2.19" shape=""/>
  </edge>
  <edge id="intersection_1_2_26" function="internal">
    <lane id="intersection_1_2_26_0" index="0" speed="3.93" length="2.19" shape=""/>
  </edge>
  <edge id="intersection_1_2_27" function="internal">
    <lane id="intersection_1_2_27_0" index="0" speed="3.93" length="2.19" shape=""/>
  </edge>
  <edge id="intersection_1_2_28" function="internal">
    <lane id="intersection_1_2_28_0" index="0" speed="3.93" length="2.19" shape=""/>
  </edge>
  <edge id="intersection_1_2_29" function="internal">
    <lane id="intersection_1_2_29_0" index="0" speed="3.93" length="2.19" shape=""/>
  </edge>
  <edge id="intersection_1_2_30" function="internal">
    <lane id="intersection_1_2_30_0" index="0" speed="3.93" length="2.19" shape=""/>
  </edge>
  <edge id="intersection_1_2_31" function="internal">
    <lane id="intersection_1_2_31_0" index="0" speed="3.93" length="2.19" shape=""/>
  </edge>
  <edge id="intersection_1_2_32" function="internal">
    <lane id="intersection_1_2_32_0" index="0" speed="3.93" length="2.19" shape=""/>
  </edge>
  <edge id="intersection_1_2_33" function="internal">
    <lane id="intersection_1_2_33_0" index="0" speed="3.93" length="2.19" shape=""/>
  </edge>
  <edge id="intersection_1_2_34" function="internal">
    <lane id="intersection_1_2_34_0" index="0" speed="3.93" length="2.19" shape=""/>
  </edge>
  <edge id="intersection_1_2_35" function="internal">
    <lane id="intersection_1_2_35_0" index="0" speed="3.93" length="2.19" shape=""/>
  </edge>
  <edge id="intersection_1_3_0" function="internal">
    <lane id="intersection_1_3_0_0" index="0" speed="3.93" length="2.19" shape=""/>
  </edge>
  <edge id="intersection_1_3_1" function="internal">
    <lane id="intersection_1_3_1_0" index="0" speed="3.93" length="2.19" shape=""/>
  </edge>
  <edge id="intersection_1_3_2" function="internal">
    <lane id="intersection_1_3_2_0" index="0" speed="3.93" length="2.19" shape=""/>
  </edge>
  <edge id="intersection_1_3_3" function="internal">
    <lane id="intersection_1_3_3_0" index="0" speed="3.93" length="2.19" shape=""/>
  </edge>
  <edge id="intersection_1_3_4" function="internal">
    <lane id="intersection_1_3_4_0" index="0" speed="3.93" length="2.19" shape=""/>
  </edge>
  <edge id="intersection_1_3_5" function="internal">
    <lane id="intersection_1_3_5_0" index="0" speed="3.93" length="2.19" shape=""/>
  </edge>
  <edge id="intersection_1_3_6" function="internal">
    <lane id="intersection_1_3_6_0" index="0" speed="3.93" length="2.19" shape=""/>
  </edge>
  <edge id="intersection_1_3_7" function="internal">
    <lane id="intersection_1_3_7_0" index="0" speed="3.93" length="2.19" shape=""/>
  </edge>
  <edge id="intersection_1_3_8" function="internal">
    <lane id="intersection_1_3_8_0" index="0" speed="3.93" length="2.19" shape=""/>
  </edge>
  <edge id="intersection_1_3_9" function="internal">
    <lane id="intersection_1_3_9_0" index="0" speed="3.93" length="2.19" shape=""/>
  </edge>
  <edge id="intersection_1_3_10" function="internal">
    <lane id="intersection_1_3_10_0" index="0" speed="3.93" length="2.19" shape=""/>
  </edge>
  <edge id="intersection_1_3_11" function="internal">
    <lane id="intersection_1_3_11_0" index="0" speed="3.93" length="2.19" shape=""/>
  </edge>
  <edge id="intersection_1_3_12" function="internal">
    <lane id="intersection_1_3_12_0" index="0" speed="3.93" length="2.19" shape=""/>
  </edge>
  <edge id="intersection_1_3_13" function="internal">
    <lane id="intersection_1_3_13_0" index="0" speed="3.93" length="2.19" shape=""/>
  </edge>
  <edge id="intersection_1_3_14" function="internal">
    <lane id="intersection_1_3_14_0" index="0" speed="3.93" length="2.19" shape=""/>
  </edge>
  <edge id="intersection_1_3_15" function="internal">
    <lane id="intersection_1_3_15_0" index="0" speed="3.93" length="2.19" shape=""/>
  </edge>
  <edge id="intersection_1_3_16" function="internal">
    <lane id="intersection_1_3_16_0" index="0" speed="3.93" length="2.19" shape=""/>
  </edge>
  <edge id="intersection_1_3_17" function="internal">
    <lane id="intersection_1_3_17_0" index="0" speed="3.93" length="2.19" shape=""/>
  </edge>
  <edge id="intersection_1_3_18" function="internal">
    <lane id="intersection_1_3_18_0" index="0" speed="3.93" length="2.19" shape=""/>
  </edge>
  <edge id="intersection_1_3_19" function="internal">
    <lane id="intersection_1_3_19_0" index="0" speed="3.93" length="2.19" shape=""/>
  </edge>
  <edge id="intersection_1_3_20" function="internal">
    <lane id="intersection_1_3_20_0" index="0" speed="3.93" length="2.19" shape=""/>
  </edge>
  <edge id="intersection_1_3_21" function="internal">
    <lane id="intersection_1_3_21_0" index="0" speed="3.93" length="2.19" shape=""/>
  </edge>
  <edge id="intersection_1_3_22" function="internal">
    <lane id="intersection_1_3_22_0" index="0" speed="3.93" length="2.19" shape=""/>
  </edge>
  <edge id="intersection_1_3_23" function="internal">
    <lane id="intersection_1_3_23_0" index="0" speed="3.93" length="2.19" shape=""/>
  </edge>
  <edge id="intersection_1_3_24" function="internal">
    <lane id="intersection_1_3_24_0" index="0" speed="3.93" length="2.19" shape=""/>
  </edge>
  <edge id="intersection_1_3_25" function="internal">
    <lane id="intersection_1_3_25_0" index="0" speed="3.93" length="2.19" shape=""/>
  </edge>
  <edge id="intersection_1_3_26" function="internal">
    <lane id="intersection_1_3_26_0" index="0" speed="3.93" length="2.19" shape=""/>
  </edge>
  <edge id="intersection_1_3_27" function="internal">
    <lane id="intersection_1_3_27_0" index="0" speed="3.93" length="2.19" shape=""/>
  </edge>
  <edge id="intersection_1_3_28" function="internal">
    <lane id="intersection_1_3_28_0" index="0" speed="3.93" length="2.19" shape=""/>
  </edge>
  <edge id="intersection_1_3_29" function="internal">
    <lane id="intersection_1_3_29_0" index="0" speed="3.93" length="2.19" shape=""/>
  </edge>
  <edge id="intersection_1_3_30" function="internal">
    <lane id="intersection_1_3_30_0" index="0" speed="3.93" length="2.19" shape=""/>
  </edge>
  <edge id="intersection_1_3_31" function="internal">
    <lane id="intersection_1_3_31_0" index="0" speed="3.93" length="2.19" shape=""/>
  </edge>
  <edge id="intersection_1_3_32" function="internal">
    <lane id="intersection_1_3_32_0" index="0" speed="3.93" length="2.19" shape=""/>
  </edge>
  <edge id="intersection_1_3_33" function="internal">
    <lane id="intersection_1_3_33_0" index="0" speed="3.93" length="2.19" shape=""/>
  </edge>
  <edge id="intersection_1_3_34" function="internal">
    <lane id="intersection_1_3_34_0" index="0" speed="3.93" length="2.19" shape=""/>
  </edge>
  <edge id="intersection_1_3_35" function="internal">
    <lane id="intersection_1_3_35_0" index="0" speed="3.93" length="2.19" shape=""/>
  </edge>
  <edge id="intersection_1_4_0" function="internal">
    <lane id="intersection_1_4_0_0" index="0" speed="3.93" length="2.19" shape=""/>
  </edge>
  <edge id="intersection_1_4_1" function="internal">
    <lane id="intersection_1_4_1_0" index="0" speed="3.93" length="2.19" shape=""/>
  </edge>
  <edge id="intersection_1_4_2" function="internal">
    <lane id="intersection_1_4_2_0" index="0" speed="3.93" length="2.19" shape=""/>
  </edge>
  <edge id="intersection_1_4_3" function="internal">
    <lane id="intersection_1_4_3_0" index="0" speed="3.93" length="2.19" shape=""/>
  </edge>
  <edge id="intersection_1_4_4" function="internal">
    <lane id="intersection_1_4_4_0" index="0" speed="3.93" length="2.19" shape=""/>
  </edge>
  <edge id="intersection_1_4_5" function="internal">
    <lane id="intersection_1_4_5_0" index="0" speed="3.93" length="2.19" shape=""/>
  </edge>
  <edge id="intersection_1_4_6" function="internal">
    <lane id="intersection_1_4_6_0" index="0" speed="3.93" length="2.19" shape=""/>
  </edge>
  <edge id="intersection_1_4_7" function="internal">
    <lane id="intersection_1_4_7_0" index="0" speed="3.93" length="2.19" shape=""/>
  </edge>
  <edge id="intersection_1_4_8" function="internal">
    <lane id="intersection_1_4_8_0" index="0" speed="3.93" length="2.19" shape=""/>
  </edge>
  <edge id="intersection_1_4_9" function="internal">
    <lane id="intersection_1_4_9_0" index="0" speed="3.93" length="2.19" shape=""/>
  </edge>
  <edge id="intersection_1_4_10" function="internal">
    <lane id="intersection_1_4_10_0" index="0" speed="3.93" length="2.19" shape=""/>
  </edge>
  <edge id="intersection_1_4_11" function="internal">
    <lane id="intersection_1_4_11_0" index="0" speed="3.93" length="2.19" shape=""/>
  </edge>
  <edge id="intersection_1_4_12" function="internal">
    <lane id="intersection_1_4_12_0" index="0" speed="3.93" length="2.19" shape=""/>
  </edge>
  <edge id="intersection_1_4_13" function="internal">
    <lane id="intersection_1_4_13_0" index="0" speed="3.93" length="2.19" shape=""/>
  </edge>
  <edge id="intersection_1_4_14" function="internal">
    <lane id="intersection_1_4_14_0" index="0" speed="3.93" length="2.19" shape=""/>
  </edge>
  <edge id="intersection_1_4_15" function="internal">
    <lane id="intersection_1_4_15_0" index="0" speed="3.93" length="2.19" shape=""/>
  </edge>
  <edge id="intersection_1_4_16" function="internal">
    <lane id="intersection_1_4_16_0" index="0" speed="3.93" length="2.19" shape=""/>
  </edge>
  <edge id="intersection_1_4_17" function="internal">
    <lane id="intersection_1_4_17_0" index="0" speed="3.93" length="2.19" shape=""/>
  </edge>
  <edge id="intersection_1_4_18" function="internal">
    <lane id="intersection_1_4_18_0" index="0" speed="3.93" length="2.19" shape=""/>
  </edge>
  <edge id="intersection_1_4_19" function="internal">
    <lane id="intersection_1_4_19_0" index="0" speed="3.93" length="2.19" shape=""/>
  </edge>
  <edge id="intersection_1_4_20" function="internal">
    <lane id="intersection_1_4_20_0" index="0" speed="3.93" length="2.19" shape=""/>
  </edge>
  <edge id="intersection_1_4_21" function="internal">
    <lane id="intersection_1_4_21_0" index="0" speed="3.93" length="2.19" shape=""/>
  </edge>
  <edge id="intersection_1_4_22" function="internal">
    <lane id="intersection_1_4_22_0" index="0" speed="3.93" length="2.19" shape=""/>
  </edge>
  <edge id="intersection_1_4_23" function="internal">
    <lane id="intersection_1_4_23_0" index="0" speed="3.93" length="2.19" shape=""/>
  </edge>
  <edge id="intersection_1_4_24" function="internal">
    <lane id="intersection_1_4_24_0" index="0" speed="3.93" length="2.19" shape=""/>
  </edge>
  <edge id="intersection_1_4_25" function="internal">
    <lane id="intersection_1_4_25_0" index="0" speed="3.93" length="2.19" shape=""/>
  </edge>
  <edge id="intersection_1_4_26" function="internal">
    <lane id="intersection_1_4_26_0" index="0" speed="3.93" length="2.19" shape=""/>
  </edge>
  <edge id="intersection_1_4_27" function="internal">
    <lane id="intersection_1_4_27_0" index="0" speed="3.93" length="2.19" shape=""/>
  </edge>
  <edge id="intersection_1_4_28" function="internal">
    <lane id="intersection_1_4_28_0" index="0" speed="3.93" length="2.19" shape=""/>
  </edge>
  <edge id="intersection_1_4_29" function="internal">
    <lane id="intersection_1_4_29_0" index="0" speed="3.93" length="2.19" shape=""/>
  </edge>
  <edge id="intersection_1_4_30" function="internal">
    <lane id="intersection_1_4_30_0" index="0" speed="3.93" length="2.19" shape=""/>
  </edge>
  <edge id="intersection_1_4_31" function="internal">
    <lane id="intersection_1_4_31_0" index="0" speed="3.93" length="2.19" shape=""/>
  </edge>
  <edge id="intersection_1_4_32" function="internal">
    <lane id="intersection_1_4_32_0" index="0" speed="3.93" length="2.19" shape=""/>
  </edge>
  <edge id="intersection_1_4_33" function="internal">
    <lane id="intersection_1_4_33_0" index="0" speed="3.93" length="2.19" shape=""/>
  </edge>
  <edge id="intersection_1_4_34" function="internal">
    <lane id="intersection_1_4_34_0" index="0" speed="3.93" length="2.19" shape=""/>
  </edge>
  <edge id="intersection_1_4_35" function="internal">
    <lane id="intersection_1_4_35_0" index="0" speed="3.93" length="2.19" shape=""/>
  </edge>
  <edge id="intersection_1_5_0" function="internal">
    <lane id="intersection_1_5_0_0" index="0" speed="3.93" length="2.19" shape=""/>
  </edge>
  <edge id="intersection_1_5_1" function="internal">
    <lane id="intersection_1_5_1_0" index="0" speed="3.93" length="2.19" shape=""/>
  </edge>
  <edge id="intersection_1_5_2" function="internal">
    <lane id="intersection_1_5_2_0" index="0" speed="3.93" length="2.19" shape=""/>
  </edge>
  <edge id="intersection_1_5_3" function="internal">
    <lane id="intersection_1_5_3_0" index="0" speed="3.93" length="2.19" shape=""/>
  </edge>
  <edge id="intersection_1_5_4" function="internal">
    <lane id="intersection_1_5_4_0" index="0" speed="3.93" length="2.19" shape=""/>
  </edge>
  <edge id="intersection_1_5_5" function="internal">
    <lane id="intersection_1_5_5_0" index="0" speed="3.93" length="2.19" shape=""/>
  </edge>
  <edge id="intersection_1_5_6" function="internal">
    <lane id="intersection_1_5_6_0" index="0" speed="3.93" length="2.19" shape=""/>
  </edge>
  <edge id="intersection_1_5_7" function="internal">
    <lane id="intersection_1_5_7_0" index="0" speed="3.93" length="2.19" shape=""/>
  </edge>
  <edge id="intersection_1_5_8" function="internal">
    <lane id="intersection_1_5_8_0" index="0" speed="3.93" length="2.19" shape=""/>
  </edge>
  <edge id="intersection_1_5_9" function="internal">
    <lane id="intersection_1_5_9_0" index="0" speed="3.93" length="2.19" shape=""/>
  </edge>
  <edge id="intersection_1_5_10" function="internal">
    <lane id="intersection_1_5_10_0" index="0" speed="3.93" length="2.19" shape=""/>
  </edge>
  <edge id="intersection_1_5_11" function="internal">
    <lane id="intersection_1_5_11_0" index="0" speed="3.93" length="2.19" shape=""/>
  </edge>
  <edge id="intersection_1_5_12" function="internal">
    <lane id="intersection_1_5_12_0" index="0" speed="3.93" length="2.19" shape=""/>
  </edge>
  <edge id="intersection_1_5_13" function="internal">
    <lane id="intersection_1_5_13_0" index="0" speed="3.93" length="2.19" shape=""/>
  </edge>
  <edge id="intersection_1_5_14" function="internal">
    <lane id="intersection_1_5_14_0" index="0" speed="3.93" length="2.19" shape=""/>
  </edge>
  <edge id="intersection_1_5_15" function="internal">
    <lane id="intersection_1_5_15_0" index="0" speed="3.93" length="2.19" shape=""/>
  </edge>
  <edge id="intersection_1_5_16" function="internal">
    <lane id="intersection_1_5_16_0" index="0" speed="3.93" length="2.19" shape=""/>
  </edge>
  <edge id="intersection_1_5_17" function="internal">
    <lane id="intersection_1_5_17_0" index="0" speed="3.93" length="2.19" shape=""/>
  </edge>
  <edge id="intersection_1_5_18" function="internal">
    <lane id="intersection_1_5_18_0" index="0" speed="3.93" length="2.19" shape=""/>
  </edge>
  <edge id="intersection_1_5_19" function="internal">
    <lane id="intersection_1_5_19_0" index="0" speed="3.93" length="2.19" shape=""/>
  </edge>
  <edge id="intersection_1_5_20" function="internal">
    <lane id="intersection_1_5_20_0" index="0" speed="3.93" length="2.19" shape=""/>
  </edge>
  <edge id="intersection_1_5_21" function="internal">
    <lane id="intersection_1_5_21_0" index="0" speed="3.93" length="2.19" shape=""/>
  </edge>
  <edge id="intersection_1_5_22" function="internal">
    <lane id="intersection_1_5_22_0" index="0" speed="3.93" length="2.19" shape=""/>
  </edge>
  <edge id="intersection_1_5_23" function="internal">
    <lane id="intersection_1_5_23_0" index="0" speed="3.93" length="2.19" shape=""/>
  </edge>
  <edge id="intersection_1_5_24" function="internal">
    <lane id="intersection_1_5_24_0" index="0" speed="3.93" length="2.19" shape=""/>
  </edge>
  <edge id="intersection_1_5_25" function="internal">
    <lane id="intersection_1_5_25_0" index="0" speed="3.93" length="2.19" shape=""/>
  </edge>
  <edge id="intersection_1_5_26" function="internal">
    <lane id="intersection_1_5_26_0" index="0" speed="3.93" length="2.19" shape=""/>
  </edge>
  <edge id="intersection_1_5_27" function="internal">
    <lane id="intersection_1_5_27_0" index="0" speed="3.93" length="2.19" shape=""/>
  </edge>
  <edge id="intersection_1_5_28" function="internal">
    <lane id="intersection_1_5_28_0" index="0" speed="3.93" length="2.19" shape=""/>
  </edge>
  <edge id="intersection_1_5_29" function="internal">
    <lane id="intersection_1_5_29_0" index="0" speed="3.93" length="2.19" shape=""/>
  </edge>
  <edge id="intersection_1_5_30" function="internal">
    <lane id="intersection_1_5_30_0" index="0" speed="3.93" length="2.19" shape=""/>
  </edge>
  <edge id="intersection_1_5_31" function="internal">
    <lane id="intersection_1_5_31_0" index="0" speed="3.93" length="2.19" shape=""/>
  </edge>
  <edge id="intersection_1_5_32" function="internal">
    <lane id="intersection_1_5_32_0" index="0" speed="3.93" length="2.19" shape=""/>
  </edge>
  <edge id="intersection_1_5_33" function="internal">
    <lane id="intersection_1_5_33_0" index="0" speed="3.93" length="2.19" shape=""/>
  </edge>
  <edge id="intersection_1_5_34" function="internal">
    <lane id="intersection_1_5_34_0" index="0" speed="3.93" length="2.19" shape=""/>
  </edge>
  <edge id="intersection_1_5_35" function="internal">
    <lane id="intersection_1_5_35_0" index="0" speed="3.93" length="2.19" shape=""/>
  </edge>
  <edge id="intersection_1_6_0" function="internal">
    <lane id="intersection_1_6_0_0" index="0" speed="3.93" length="2.19" shape=""/>
  </edge>
  <edge id="intersection_1_6_1" function="internal">
    <lane id="intersection_1_6_1_0" index="0" speed="3.93" length="2.19" shape=""/>
  </edge>
  <edge id="intersection_1_6_2" function="internal">
    <lane id="intersection_1_6_2_0" index="0" speed="3.93" length="2.19" shape=""/>
  </edge>
  <edge id="intersection_1_6_3" function="internal">
    <lane id="intersection_1_6_3_0" index="0" speed="3.93" length="2.19" shape=""/>
  </edge>
  <edge id="intersection_1_6_4" function="internal">
    <lane id="intersection_1_6_4_0" index="0" speed="3.93" length="2.19" shape=""/>
  </edge>
  <edge id="intersection_1_6_5" function="internal">
    <lane id="intersection_1_6_5_0" index="0" speed="3.93" length="2.19" shape=""/>
  </edge>
  <edge id="intersection_1_6_6" function="internal">
    <lane id="intersection_1_6_6_0" index="0" speed="3.93" length="2.19" shape=""/>
  </edge>
  <edge id="intersection_1_6_7" function="internal">
    <lane id="intersection_1_6_7_0" index="0" speed="3.93" length="2.19" shape=""/>
  </edge>
  <edge id="intersection_1_6_8" function="internal">
    <lane id="intersection_1_6_8_0" index="0" speed="3.93" length="2.19" shape=""/>
  </edge>
  <edge id="intersection_1_6_9" function="internal">
    <lane id="intersection_1_6_9_0" index="0" speed="3.93" length="2.19" shape=""/>
  </edge>
  <edge id="intersection_1_6_10" function="internal">
    <lane id="intersection_1_6_10_0" index="0" speed="3.93" length="2.19" shape=""/>
  </edge>
  <edge id="intersection_1_6_11" function="internal">
    <lane id="intersection_1_6_11_0" index="0" speed="3.93" length="2.19" shape=""/>
  </edge>
  <edge id="intersection_1_6_12" function="internal">
    <lane id="intersection_1_6_12_0" index="0" speed="3.93" length="2.19" shape=""/>
  </edge>
  <edge id="intersection_1_6_13" function="internal">
    <lane id="intersection_1_6_13_0" index="0" speed="3.93" length="2.19" shape=""/>
  </edge>
  <edge id="intersection_1_6_14" function="internal">
    <lane id="intersection_1_6_14_0" index="0" speed="3.93" length="2.19" shape=""/>
  </edge>
  <edge id="intersection_1_6_15" function="internal">
    <lane id="intersection_1_6_15_0" index="0" speed="3.93" length="2.19" shape=""/>
  </edge>
  <edge id="intersection_1_6_16" function="internal">
    <lane id="intersection_1_6_16_0" index="0" speed="3.93" length="2.19" shape=""/>
  </edge>
  <edge id="intersection_1_6_17" function="internal">
    <lane id="intersection_1_6_17_0" index="0" speed="3.93" length="2.19" shape=""/>
  </edge>
  <edge id="intersection_1_6_18" function="internal">
    <lane id="intersection_1_6_18_0" index="0" speed="3.93" length="2.19" shape=""/>
  </edge>
  <edge id="intersection_1_6_19" function="internal">
    <lane id="intersection_1_6_19_0" index="0" speed="3.93" length="2.19" shape=""/>
  </edge>
  <edge id="intersection_1_6_20" function="internal">