<?xml version="1.0" encoding="UTF-8"?>

<!-- generated on Tue Apr 17 19:56:04 2018 by SUMO duarouter Version 0.30.0
<?xml version="1.0" encoding="UTF-8"?>

<configuration xmlns:xsi="http://www.w3.org/2001/XMLSchema-instance" xsi:noNamespaceSchemaLocation="http://sumo.dlr.de/xsd/duarouterConfiguration.xsd">

    <input>
        <net-file value="nguyentl.net.xml"/>
        <flow-files value="nguyenTeste.flows.xml"/>
    </input>

    <output>
        <output-file value="nguyenTeste.rou.xml"/>
    </output>

</configuration>
-->

<routes xmlns:xsi="http://www.w3.org/2001/XMLSchema-instance" xsi:noNamespaceSchemaLocation="http://sumo.dlr.de/xsd/routes_file.xsd">
    <vehicle id="0.0" depart="0.00">
        <route edges="1to5 5to6 6to11 11to15 15to3"/>
    </vehicle>
    <vehicle id="0.1" depart="0.00">
        <route edges="1to5 5to6 6to11 11to15 15to3"/>
    </vehicle>
    <vehicle id="0.2" depart="0.00">
        <route edges="1to5 5to6 6to11 11to15 15to3"/>
    </vehicle>
    <vehicle id="0.3" depart="0.00">
        <route edges="1to5 5to6 6to11 11to15 15to3"/>
    </vehicle>
    <vehicle id="0.4" depart="0.00">
        <route edges="1to5 5to6 6to11 11to15 15to3"/>
    </vehicle>
    <vehicle id="0.5" depart="0.00">
        <route edges="1to5 5to6 6to11 11to15 15to3"/>
    </vehicle>
    <vehicle id="0.6" depart="0.00">
        <route edges="1to5 5to6 6to11 11to15 15to3"/>
    </vehicle>
    <vehicle id="0.7" depart="0.00">
        <route edges="1to5 5to6 6to11 11to15 15to3"/>
    </vehicle>
    <vehicle id="0.8" depart="0.00">
        <route edges="1to5 5to6 6to11 11to15 15to3"/>
    </vehicle>
    <vehicle id="0.9" depart="0.00">
        <route edges="1to5 5to6 6to11 11to15 15to3"/>
    </vehicle>
    <vehicle id="0.10" depart="0.00">
        <route edges="1to5 5to6 6to11 11to15 15to3"/>
    </vehicle>
    <vehicle id="0.11" depart="0.00">
        <route edges="1to5 5to6 6to11 11to15 15to3"/>
    </vehicle>
    <vehicle id="0.12" depart="0.00">
        <route edges="1to5 5to6 6to11 11to15 15to3"/>
    </vehicle>
    <vehicle id="0.13" depart="0.00">
        <route edges="1to5 5to6 6to11 11to15 15to3"/>
    </vehicle>
    <vehicle id="0.14" depart="0.00">
        <route edges="1to5 5to6 6to11 11to15 15to3"/>
    </vehicle>
    <vehicle id="0.15" depart="0.00">
        <route edges="1to5 5to6 6to11 11to15 15to3"/>
    </vehicle>
    <vehicle id="0.16" depart="0.00">
        <route edges="1to5 5to6 6to11 11to15 15to3"/>
    </vehicle>
    <vehicle id="0.17" depart="0.00">
        <route edges="1to5 5to6 6to11 11to15 15to3"/>
    </vehicle>
    <vehicle id="0.18" depart="0.00">
        <route edges="1to5 5to6 6to11 11to15 15to3"/>
    </vehicle>
    <vehicle id="0.19" depart="0.00">
        <route edges="1to5 5to6 6to11 11to15 15to3"/>
    </vehicle>
    <vehicle id="0.20" depart="0.00">
        <route edges="1to5 5to6 6to11 11to15 15to3"/>
    </vehicle>
    <vehicle id="0.21" depart="0.00">
        <route edges="1to5 5to6 6to11 11to15 15to3"/>
    </vehicle>
    <vehicle id="0.22" depart="0.00">
        <route edges="1to5 5to6 6to11 11to15 15to3"/>
    </vehicle>
    <vehicle id="0.23" depart="0.00">
        <route edges="1to5 5to6 6to11 11to15 15to3"/>
    </vehicle>
    <vehicle id="0.24" depart="0.00">
        <route edges="1to5 5to6 6to11 11to15 15to3"/>
    </vehicle>
    <vehicle id="0.25" depart="0.00">
        <route edges="1to5 5to6 6to11 11to15 15to3"/>
    </vehicle>
    <vehicle id="0.26" depart="0.00">
        <route edges="1to5 5to6 6to11 11to15 15to3"/>
    </vehicle>
    <vehicle id="0.27" depart="0.00">
        <route edges="1to5 5to6 6to11 11to15 15to3"/>
    </vehicle>
    <vehicle id="0.28" depart="0.00">
        <route edges="1to5 5to6 6to11 11to15 15to3"/>
    </vehicle>
    <vehicle id="0.29" depart="0.00">
        <route edges="1to5 5to6 6to11 11to15 15to3"/>
    </vehicle>
    <vehicle id="0.30" depart="0.00">
        <route edges="1to5 5to6 6to11 11to15 15to3"/>
    </vehicle>
    <vehicle id="0.31" depart="0.00">
        <route edges="1to5 5to6 6to11 11to15 15to3"/>
    </vehicle>
    <vehicle id="0.32" depart="0.00">
        <route edges="1to5 5to6 6to11 11to15 15to3"/>
    </vehicle>
    <vehicle id="0.33" depart="0.00">
        <route edges="1to5 5to6 6to11 11to15 15to3"/>
    </vehicle>
    <vehicle id="0.34" depart="0.00">
        <route edges="1to5 5to6 6to11 11to15 15to3"/>
    </vehicle>
    <vehicle id="0.35" depart="0.00">
        <route edges="1to5 5to6 6to11 11to15 15to3"/>
    </vehicle>
    <vehicle id="0.36" depart="0.00">
        <route edges="1to5 5to6 6to11 11to15 15to3"/>
    </vehicle>
    <vehicle id="0.37" depart="0.00">
        <route edges="1to5 5to6 6to11 11to15 15to3"/>
    </vehicle>
    <vehicle id="0.38" depart="0.00">
        <route edges="1to5 5to6 6to11 11to15 15to3"/>
    </vehicle>
    <vehicle id="0.39" depart="0.00">
        <route edges="1to5 5to6 6to11 11to15 15to3"/>
    </vehicle>
    <vehicle id="0.40" depart="0.00">
        <route edges="1to5 5to6 6to11 11to15 15to3"/>
    </vehicle>
    <vehicle id="0.41" depart="0.00">
        <route edges="1to5 5to6 6to11 11to15 15to3"/>
    </vehicle>
    <vehicle id="0.42" depart="0.00">
        <route edges="1to5 5to6 6to11 11to15 15to3"/>
    </vehicle>
    <vehicle id="0.43" depart="0.00">
        <route edges="1to5 5to6 6to11 11to15 15to3"/>
    </vehicle>
    <vehicle id="0.44" depart="0.00">
        <route edges="1to5 5to6 6to11 11to15 15to3"/>
    </vehicle>
    <vehicle id="0.45" depart="0.00">
        <route edges="1to5 5to6 6to11 11to15 15to3"/>
    </vehicle>
    <vehicle id="0.46" depart="0.00">
        <route edges="1to5 5to6 6to11 11to15 15to3"/>
    </vehicle>
    <vehicle id="0.47" depart="0.00">
        <route edges="1to5 5to6 6to11 11to15 15to3"/>
    </vehicle>
    <vehicle id="0.48" depart="0.00">
        <route edges="1to5 5to6 6to11 11to15 15to3"/>
    </vehicle>
    <vehicle id="0.49" depart="0.00">
        <route edges="1to5 5to6 6to11 11to15 15to3"/>
    </vehicle>
    <vehicle id="0.50" depart="0.00">
        <route edges="1to5 5to6 6to11 11to15 15to3"/>
    </vehicle>
    <vehicle id="0.51" depart="0.00">
        <route edges="1to5 5to6 6to11 11to15 15to3"/>
    </vehicle>
    <vehicle id="0.52" depart="0.00">
        <route edges="1to5 5to6 6to11 11to15 15to3"/>
    </vehicle>
    <vehicle id="0.53" depart="0.00">
        <route edges="1to5 5to6 6to11 11to15 15to3"/>
    </vehicle>
    <vehicle id="0.54" depart="0.00">
        <route edges="1to5 5to6 6to11 11to15 15to3"/>
    </vehicle>
    <vehicle id="0.55" depart="0.00">
        <route edges="1to5 5to6 6to11 11to15 15to3"/>
    </vehicle>
    <vehicle id="0.56" depart="0.00">
        <route edges="1to5 5to6 6to11 11to15 15to3"/>
    </vehicle>
    <vehicle id="0.57" depart="0.00">
        <route edges="1to5 5to6 6to11 11to15 15to3"/>
    </vehicle>
    <vehicle id="0.58" depart="0.00">
        <route edges="1to5 5to6 6to11 11to15 15to3"/>
    </vehicle>
    <vehicle id="0.59" depart="0.00">
        <route edges="1to5 5to6 6to11 11to15 15to3"/>
    </vehicle>
    <vehicle id="0.60" depart="0.00">
        <route edges="1to5 5to6 6to11 11to15 15to3"/>
    </vehicle>
    <vehicle id="0.61" depart="0.00">
        <route edges="1to5 5to6 6to11 11to15 15to3"/>
    </vehicle>
    <vehicle id="0.62" depart="0.00">
        <route edges="1to5 5to6 6to11 11to15 15to3"/>
    </vehicle>
    <vehicle id="0.63" depart="0.00">
        <route edges="1to5 5to6 6to11 11to15 15to3"/>
    </vehicle>
    <vehicle id="0.64" depart="0.00">
        <route edges="1to5 5to6 6to11 11to15 15to3"/>
    </vehicle>
    <vehicle id="0.65" depart="0.00">
        <route edges="1to5 5to6 6to11 11to15 15to3"/>
    </vehicle>
    <vehicle id="0.66" depart="0.00">
        <route edges="1to5 5to6 6to11 11to15 15to3"/>
    </vehicle>
    <vehicle id="0.67" depart="0.00">
        <route edges="1to5 5to6 6to11 11to15 15to3"/>
    </vehicle>
    <vehicle id="0.68" depart="0.00">
        <route edges="1to5 5to6 6to11 11to15 15to3"/>
    </vehicle>
    <vehicle id="0.69" depart="0.00">
        <route edges="1to5 5to6 6to11 11to15 15to3"/>
    </vehicle>
    <vehicle id="0.70" depart="0.00">
        <route edges="1to5 5to6 6to11 11to15 15to3"/>
    </vehicle>
    <vehicle id="0.71" depart="0.00">
        <route edges="1to5 5to6 6to11 11to15 15to3"/>
    </vehicle>
    <vehicle id="0.72" depart="0.00">
        <route edges="1to5 5to6 6to11 11to15 15to3"/>
    </vehicle>
    <vehicle id="0.73" depart="0.00">
        <route edges="1to5 5to6 6to11 11to15 15to3"/>
    </vehicle>
    <vehicle id="0.74" depart="0.00">
        <route edges="1to5 5to6 6to11 11to15 15to3"/>
    </vehicle>
    <vehicle id="0.75" depart="0.00">
        <route edges="1to5 5to6 6to11 11to15 15to3"/>
    </vehicle>
    <vehicle id="0.76" depart="0.00">
        <route edges="1to5 5to6 6to11 11to15 15to3"/>
    </vehicle>
    <vehicle id="0.77" depart="0.00">
        <route edges="1to5 5to6 6to11 11to15 15to3"/>
    </vehicle>
    <vehicle id="0.78" depart="0.00">
        <route edges="1to5 5to6 6to11 11to15 15to3"/>
    </vehicle>
    <vehicle id="0.79" depart="0.00">
        <route edges="1to5 5to6 6to11 11to15 15to3"/>
    </vehicle>
    <vehicle id="0.80" depart="0.00">
        <route edges="1to5 5to6 6to11 11to15 15to3"/>
    </vehicle>
    <vehicle id="0.81" depart="0.00">
        <route edges="1to5 5to6 6to11 11to15 15to3"/>
    </vehicle>
    <vehicle id="0.82" depart="0.00">
        <route edges="1to5 5to6 6to11 11to15 15to3"/>
    </vehicle>
    <vehicle id="0.83" depart="0.00">
        <route edges="1to5 5to6 6to11 11to15 15to3"/>
    </vehicle>
    <vehicle id="0.84" depart="0.00">
        <route edges="1to5 5to6 6to11 11to15 15to3"/>
    </vehicle>
    <vehicle id="0.85" depart="0.00">
        <route edges="1to5 5to6 6to11 11to15 15to3"/>
    </vehicle>
    <vehicle id="0.86" depart="0.00">
        <route edges="1to5 5to6 6to11 11to15 15to3"/>
    </vehicle>
    <vehicle id="0.87" depart="0.00">
        <route edges="1to5 5to6 6to11 11to15 15to3"/>
    </vehicle>
    <vehicle id="0.88" depart="0.00">
        <route edges="1to5 5to6 6to11 11to15 15to3"/>
    </vehicle>
    <vehicle id="0.89" depart="0.00">
        <route edges="1to5 5to6 6to11 11to15 15to3"/>
    </vehicle>
    <vehicle id="0.90" depart="0.00">
        <route edges="1to5 5to6 6to11 11to15 15to3"/>
    </vehicle>
    <vehicle id="0.91" depart="0.00">
        <route edges="1to5 5to6 6to11 11to15 15to3"/>
    </vehicle>
    <vehicle id="0.92" depart="0.00">
        <route edges="1to5 5to6 6to11 11to15 15to3"/>
    </vehicle>
    <vehicle id="0.93" depart="0.00">
        <route edges="1to5 5to6 6to11 11to15 15to3"/>
    </vehicle>
    <vehicle id="0.94" depart="0.00">
        <route edges="1to5 5to6 6to11 11to15 15to3"/>
    </vehicle>
    <vehicle id="0.95" depart="0.00">
        <route edges="1to5 5to6 6to11 11to15 15to3"/>
    </vehicle>
    <vehicle id="0.96" depart="0.00">
        <route edges="1to5 5to6 6to11 11to15 15to3"/>
    </vehicle>
    <vehicle id="0.97" depart="0.00">
        <route edges="1to5 5to6 6to11 11to15 15to3"/>
    </vehicle>
    <vehicle id="0.98" depart="0.00">
        <route edges="1to5 5to6 6to11 11to15 15to3"/>
    </vehicle>
    <vehicle id="0.99" depart="0.00">
        <route edges="1to5 5to6 6to11 11to15 15to3"/>
    </vehicle>
    <vehicle id="0.100" depart="0.00">
        <route edges="1to5 5to6 6to11 11to15 15to3"/>
    </vehicle>
    <vehicle id="0.101" depart="0.00">
        <route edges="1to5 5to6 6to11 11to15 15to3"/>
    </vehicle>
    <vehicle id="0.102" depart="0.00">
        <route edges="1to5 5to6 6to11 11to15 15to3"/>
    </vehicle>
    <vehicle id="0.103" depart="0.00">
        <route edges="1to5 5to6 6to11 11to15 15to3"/>
    </vehicle>
    <vehicle id="0.104" depart="0.00">
        <route edges="1to5 5to6 6to11 11to15 15to3"/>
    </vehicle>
    <vehicle id="0.105" depart="0.00">
        <route edges="1to5 5to6 6to11 11to15 15to3"/>
    </vehicle>
    <vehicle id="0.106" depart="0.00">
        <route edges="1to5 5to6 6to11 11to15 15to3"/>
    </vehicle>
    <vehicle id="0.107" depart="0.00">
        <route edges="1to5 5to6 6to11 11to15 15to3"/>
    </vehicle>
    <vehicle id="0.108" depart="0.00">
        <route edges="1to5 5to6 6to11 11to15 15to3"/>
    </vehicle>
    <vehicle id="0.109" depart="0.00">
        <route edges="1to5 5to6 6to11 11to15 15to3"/>
    </vehicle>
    <vehicle id="0.110" depart="0.00">
        <route edges="1to5 5to6 6to11 11to15 15to3"/>
    </vehicle>
    <vehicle id="0.111" depart="0.00">
        <route edges="1to5 5to6 6to11 11to15 15to3"/>
    </vehicle>
    <vehicle id="0.112" depart="0.00">
        <route edges="1to5 5to6 6to11 11to15 15to3"/>
    </vehicle>
    <vehicle id="0.113" depart="0.00">
        <route edges="1to5 5to6 6to11 11to15 15to3"/>
    </vehicle>
    <vehicle id="0.114" depart="0.00">
        <route edges="1to5 5to6 6to11 11to15 15to3"/>
    </vehicle>
    <vehicle id="0.115" depart="0.00">
        <route edges="1to5 5to6 6to11 11to15 15to3"/>
    </vehicle>
    <vehicle id="0.116" depart="0.00">
        <route edges="1to5 5to6 6to11 11to15 15to3"/>
    </vehicle>
    <vehicle id="0.117" depart="0.00">
        <route edges="1to5 5to6 6to11 11to15 15to3"/>
    </vehicle>
    <vehicle id="0.118" depart="0.00">
        <route edges="1to5 5to6 6to11 11to15 15to3"/>
    </vehicle>
    <vehicle id="0.119" depart="0.00">
        <route edges="1to5 5to6 6to11 11to15 15to3"/>
    </vehicle>
    <vehicle id="0.120" depart="0.00">
        <route edges="1to5 5to6 6to11 11to15 15to3"/>
    </vehicle>
    <vehicle id="0.121" depart="0.00">
        <route edges="1to5 5to6 6to11 11to15 15to3"/>
    </vehicle>
    <vehicle id="0.122" depart="0.00">
        <route edges="1to5 5to6 6to11 11to15 15to3"/>
    </vehicle>
    <vehicle id="0.123" depart="0.00">
        <route edges="1to5 5to6 6to11 11to15 15to3"/>
    </vehicle>
    <vehicle id="0.124" depart="0.00">
        <route edges="1to5 5to6 6to11 11to15 15to3"/>
    </vehicle>
    <vehicle id="0.125" depart="0.00">
        <route edges="1to5 5to6 6to11 11to15 15to3"/>
    </vehicle>
    <vehicle id="0.126" depart="0.00">
        <route edges="1to5 5to6 6to11 11to15 15to3"/>
    </vehicle>
    <vehicle id="0.127" depart="0.00">
        <route edges="1to5 5to6 6to11 11to15 15to3"/>
    </vehicle>
    <vehicle id="0.128" depart="0.00">
        <route edges="1to5 5to6 6to11 11to15 15to3"/>
    </vehicle>
    <vehicle id="0.129" depart="0.00">
        <route edges="1to5 5to6 6to11 11to15 15to3"/>
    </vehicle>
    <vehicle id="0.130" depart="0.00">
        <route edges="1to5 5to6 6to11 11to15 15to3"/>
    </vehicle>
    <vehicle id="0.131" depart="0.00">
        <route edges="1to5 5to6 6to11 11to15 15to3"/>
    </vehicle>
    <vehicle id="0.132" depart="0.00">
        <route edges="1to5 5to6 6to11 11to15 15to3"/>
    </vehicle>
    <vehicle id="0.133" depart="0.00">
        <route edges="1to5 5to6 6to11 11to15 15to3"/>
    </vehicle>
    <vehicle id="0.134" depart="0.00">
        <route edges="1to5 5to6 6to11 11to15 15to3"/>
    </vehicle>
    <vehicle id="0.135" depart="0.00">
        <route edges="1to5 5to6 6to11 11to15 15to3"/>
    </vehicle>
    <vehicle id="0.136" depart="0.00">
        <route edges="1to5 5to6 6to11 11to15 15to3"/>
    </vehicle>
    <vehicle id="0.137" depart="0.00">
        <route edges="1to5 5to6 6to11 11to15 15to3"/>
    </vehicle>
    <vehicle id="0.138" depart="0.00">
        <route edges="1to5 5to6 6to11 11to15 15to3"/>
    </vehicle>
    <vehicle id="0.139" depart="0.00">
        <route edges="1to5 5to6 6to11 11to15 15to3"/>
    </vehicle>
    <vehicle id="0.140" depart="0.00">
        <route edges="1to5 5to6 6to11 11to15 15to3"/>
    </vehicle>
    <vehicle id="0.141" depart="0.00">
        <route edges="1to5 5to6 6to11 11to15 15to3"/>
    </vehicle>
    <vehicle id="0.142" depart="0.00">
        <route edges="1to5 5to6 6to11 11to15 15to3"/>
    </vehicle>
    <vehicle id="0.143" depart="0.00">
        <route edges="1to5 5to6 6to11 11to15 15to3"/>
    </vehicle>
    <vehicle id="0.144" depart="0.00">
        <route edges="1to5 5to6 6to11 11to15 15to3"/>
    </vehicle>
    <vehicle id="0.145" depart="0.00">
        <route edges="1to5 5to6 6to11 11to15 15to3"/>
    </vehicle>
    <vehicle id="0.146" depart="0.00">
        <route edges="1to5 5to6 6to11 11to15 15to3"/>
    </vehicle>
    <vehicle id="0.147" depart="0.00">
        <route edges="1to5 5to6 6to11 11to15 15to3"/>
    </vehicle>
    <vehicle id="0.148" depart="0.00">
        <route edges="1to5 5to6 6to11 11to15 15to3"/>
    </vehicle>
    <vehicle id="0.149" depart="0.00">
        <route edges="1to5 5to6 6to11 11to15 15to3"/>
    </vehicle>
    <vehicle id="0.150" depart="0.00">
        <route edges="1to5 5to6 6to11 11to15 15to3"/>
    </vehicle>
    <vehicle id="0.151" depart="0.00">
        <route edges="1to5 5to6 6to11 11to15 15to3"/>
    </vehicle>
    <vehicle id="0.152" depart="0.00">
        <route edges="1to5 5to6 6to11 11to15 15to3"/>
    </vehicle>
    <vehicle id="0.153" depart="0.00">
        <route edges="1to5 5to6 6to11 11to15 15to3"/>
    </vehicle>
    <vehicle id="0.154" depart="0.00">
        <route edges="1to5 5to6 6to11 11to15 15to3"/>
    </vehicle>
    <vehicle id="0.155" depart="0.00">
        <route edges="1to5 5to6 6to11 11to15 15to3"/>
    </vehicle>
    <vehicle id="0.156" depart="0.00">
        <route edges="1to5 5to6 6to11 11to15 15to3"/>
    </vehicle>
    <vehicle id="0.157" depart="0.00">
        <route edges="1to5 5to6 6to11 11to15 15to3"/>
    </vehicle>
    <vehicle id="0.158" depart="0.00">
        <route edges="1to5 5to6 6to11 11to15 15to3"/>
    </vehicle>
    <vehicle id="0.159" depart="0.00">
        <route edges="1to5 5to6 6to11 11to15 15to3"/>
    </vehicle>
    <vehicle id="0.160" depart="0.00">
        <route edges="1to5 5to6 6to11 11to15 15to3"/>
    </vehicle>
    <vehicle id="0.161" depart="0.00">
        <route edges="1to5 5to6 6to11 11to15 15to3"/>
    </vehicle>
    <vehicle id="0.162" depart="0.00">
        <route edges="1to5 5to6 6to11 11to15 15to3"/>
    </vehicle>
    <vehicle id="0.163" depart="0.00">
        <route edges="1to5 5to6 6to11 11to15 15to3"/>
    </vehicle>
    <vehicle id="0.164" depart="0.00">
        <route edges="1to5 5to6 6to11 11to15 15to3"/>
    </vehicle>
    <vehicle id="0.165" depart="0.00">
        <route edges="1to5 5to6 6to11 11to15 15to3"/>
    </vehicle>
    <vehicle id="0.166" depart="0.00">
        <route edges="1to5 5to6 6to11 11to15 15to3"/>
    </vehicle>
    <vehicle id="0.167" depart="0.00">
        <route edges="1to5 5to6 6to11 11to15 15to3"/>
    </vehicle>
    <vehicle id="0.168" depart="0.00">
        <route edges="1to5 5to6 6to11 11to15 15to3"/>
    </vehicle>
    <vehicle id="0.169" depart="0.00">
        <route edges="1to5 5to6 6to11 11to15 15to3"/>
    </vehicle>
    <vehicle id="0.170" depart="0.00">
        <route edges="1to5 5to6 6to11 11to15 15to3"/>
    </vehicle>
    <vehicle id="0.171" depart="0.00">
        <route edges="1to5 5to6 6to11 11to15 15to3"/>
    </vehicle>
    <vehicle id="0.172" depart="0.00">
        <route edges="1to5 5to6 6to11 11to15 15to3"/>
    </vehicle>
    <vehicle id="0.173" depart="0.00">
        <route edges="1to5 5to6 6to11 11to15 15to3"/>
    </vehicle>
    <vehicle id="0.174" depart="0.00">
        <route edges="1to5 5to6 6to11 11to15 15to3"/>
    </vehicle>
    <vehicle id="0.175" depart="0.00">
        <route edges="1to5 5to6 6to11 11to15 15to3"/>
    </vehicle>
    <vehicle id="0.176" depart="0.00">
        <route edges="1to5 5to6 6to11 11to15 15to3"/>
    </vehicle>
    <vehicle id="0.177" depart="0.00">
        <route edges="1to5 5to6 6to11 11to15 15to3"/>
    </vehicle>
    <vehicle id="0.178" depart="0.00">
        <route edges="1to5 5to6 6to11 11to15 15to3"/>
    </vehicle>
    <vehicle id="0.179" depart="0.00">
        <route edges="1to5 5to6 6to11 11to15 15to3"/>
    </vehicle>
    <vehicle id="0.180" depart="0.00">
        <route edges="1to5 5to6 6to11 11to15 15to3"/>
    </vehicle>
    <vehicle id="0.181" depart="0.00">
        <route edges="1to5 5to6 6to11 11to15 15to3"/>
    </vehicle>
    <vehicle id="0.182" depart="0.00">
        <route edges="1to5 5to6 6to11 11to15 15to3"/>
    </vehicle>
    <vehicle id="0.183" depart="0.00">
        <route edges="1to5 5to6 6to11 11to15 15to3"/>
    </vehicle>
    <vehicle id="0.184" depart="0.00">
        <route edges="1to5 5to6 6to11 11to15 15to3"/>
    </vehicle>
    <vehicle id="0.185" depart="0.00">
        <route edges="1to5 5to6 6to11 11to15 15to3"/>
    </vehicle>
    <vehicle id="0.186" depart="0.00">
        <route edges="1to5 5to6 6to11 11to15 15to3"/>
    </vehicle>
    <vehicle id="0.187" depart="0.00">
        <route edges="1to5 5to6 6to11 11to15 15to3"/>
    </vehicle>
    <vehicle id="0.188" depart="0.00">
        <route edges="1to5 5to6 6to11 11to15 15to3"/>
    </vehicle>
    <vehicle id="0.189" depart="0.00">
        <route edges="1to5 5to6 6to11 11to15 15to3"/>
    </vehicle>
    <vehicle id="0.190" depart="0.00">
        <route edges="1to5 5to6 6to11 11to15 15to3"/>
    </vehicle>
    <vehicle id="0.191" depart="0.00">
        <route edges="1to5 5to6 6to11 11to15 15to3"/>
    </vehicle>
    <vehicle id="0.192" depart="0.00">
        <route edges="1to5 5to6 6to11 11to15 15to3"/>
    </vehicle>
    <vehicle id="0.193" depart="0.00">
        <route edges="1to5 5to6 6to11 11to15 15to3"/>
    </vehicle>
    <vehicle id="0.194" depart="0.00">
        <route edges="1to5 5to6 6to11 11to15 15to3"/>
    </vehicle>
    <vehicle id="0.195" depart="0.00">
        <route edges="1to5 5to6 6to11 11to15 15to3"/>
    </vehicle>
    <vehicle id="0.196" depart="0.00">
        <route edges="1to5 5to6 6to11 11to15 15to3"/>
    </vehicle>
    <vehicle id="0.197" depart="0.00">
        <route edges="1to5 5to6 6to11 11to15 15to3"/>
    </vehicle>
    <vehicle id="0.198" depart="0.00">
        <route edges="1to5 5to6 6to11 11to15 15to3"/>
    </vehicle>
    <vehicle id="0.199" depart="0.00">
        <route edges="1to5 5to6 6to11 11to15 15to3"/>
    </vehicle>
    <vehicle id="0.200" depart="0.00">
        <route edges="1to5 5to6 6to11 11to15 15to3"/>
    </vehicle>
    <vehicle id="0.201" depart="0.00">
        <route edges="1to5 5to6 6to11 11to15 15to3"/>
    </vehicle>
    <vehicle id="0.202" depart="0.00">
        <route edges="1to5 5to6 6to11 11to15 15to3"/>
    </vehicle>
    <vehicle id="0.203" depart="0.00">
        <route edges="1to5 5to6 6to11 11to15 15to3"/>
    </vehicle>
    <vehicle id="0.204" depart="0.00">
        <route edges="1to5 5to6 6to11 11to15 15to3"/>
    </vehicle>
    <vehicle id="0.205" depart="0.00">
        <route edges="1to5 5to6 6to11 11to15 15to3"/>
    </vehicle>
    <vehicle id="0.206" depart="0.00">
        <route edges="1to5 5to6 6to11 11to15 15to3"/>
    </vehicle>
    <vehicle id="0.207" depart="0.00">
        <route edges="1to5 5to6 6to11 11to15 15to3"/>
    </vehicle>
    <vehicle id="0.208" depart="0.00">
        <route edges="1to5 5to6 6to11 11to15 15to3"/>
    </vehicle>
    <vehicle id="0.209" depart="0.00">
        <route edges="1to5 5to6 6to11 11to15 15to3"/>
    </vehicle>
    <vehicle id="0.210" depart="0.00">
        <route edges="1to5 5to6 6to11 11to15 15to3"/>
    </vehicle>
    <vehicle id="0.211" depart="0.00">
        <route edges="1to5 5to6 6to11 11to15 15to3"/>
    </vehicle>
    <vehicle id="0.212" depart="0.00">
        <route edges="1to5 5to6 6to11 11to15 15to3"/>
    </vehicle>
    <vehicle id="0.213" depart="0.00">
        <route edges="1to5 5to6 6to11 11to15 15to3"/>
    </vehicle>
    <vehicle id="0.214" depart="0.00">
        <route edges="1to5 5to6 6to11 11to15 15to3"/>
    </vehicle>
    <vehicle id="0.215" depart="0.00">
        <route edges="1to5 5to6 6to11 11to15 15to3"/>
    </vehicle>
    <vehicle id="0.216" depart="0.00">
        <route edges="1to5 5to6 6to11 11to15 15to3"/>
    </vehicle>
    <vehicle id="0.217" depart="0.00">
        <route edges="1to5 5to6 6to11 11to15 15to3"/>
    </vehicle>
    <vehicle id="0.218" depart="0.00">
        <route edges="1to5 5to6 6to11 11to15 15to3"/>
    </vehicle>
    <vehicle id="0.219" depart="0.00">
        <route edges="1to5 5to6 6to11 11to15 15to3"/>
    </vehicle>
    <vehicle id="0.220" depart="0.00">
        <route edges="1to5 5to6 6to11 11to15 15to3"/>
    </vehicle>
    <vehicle id="0.221" depart="0.00">
        <route edges="1to5 5to6 6to11 11to15 15to3"/>
    </vehicle>
    <vehicle id="0.222" depart="0.00">
        <route edges="1to5 5to6 6to11 11to15 15to3"/>
    </vehicle>
    <vehicle id="0.223" depart="0.00">
        <route edges="1to5 5to6 6to11 11to15 15to3"/>
    </vehicle>
    <vehicle id="0.224" depart="0.00">
        <route edges="1to5 5to6 6to11 11to15 15to3"/>
    </vehicle>
    <vehicle id="0.225" depart="0.00">
        <route edges="1to5 5to6 6to11 11to15 15to3"/>
    </vehicle>
    <vehicle id="0.226" depart="0.00">
        <route edges="1to5 5to6 6to11 11to15 15to3"/>
    </vehicle>
    <vehicle id="0.227" depart="0.00">
        <route edges="1to5 5to6 6to11 11to15 15to3"/>
    </vehicle>
    <vehicle id="0.228" depart="0.00">
        <route edges="1to5 5to6 6to11 11to15 15to3"/>
    </vehicle>
    <vehicle id="0.229" depart="0.00">
        <route edges="1to5 5to6 6to11 11to15 15to3"/>
    </vehicle>
    <vehicle id="0.230" depart="0.00">
        <route edges="1to5 5to6 6to11 11to15 15to3"/>
    </vehicle>
    <vehicle id="0.231" depart="0.00">
        <route edges="1to5 5to6 6to11 11to15 15to3"/>
    </vehicle>
    <vehicle id="0.232" depart="0.00">
        <route edges="1to5 5to6 6to11 11to15 15to3"/>
    </vehicle>
    <vehicle id="0.233" depart="0.00">
        <route edges="1to5 5to6 6to11 11to15 15to3"/>
    </vehicle>
    <vehicle id="0.234" depart="0.00">
        <route edges="1to5 5to6 6to11 11to15 15to3"/>
    </vehicle>
    <vehicle id="0.235" depart="0.00">
        <route edges="1to5 5to6 6to11 11to15 15to3"/>
    </vehicle>
    <vehicle id="0.236" depart="0.00">
        <route edges="1to5 5to6 6to11 11to15 15to3"/>
    </vehicle>
    <vehicle id="0.237" depart="0.00">
        <route edges="1to5 5to6 6to11 11to15 15to3"/>
    </vehicle>
    <vehicle id="0.238" depart="0.00">
        <route edges="1to5 5to6 6to11 11to15 15to3"/>
    </vehicle>
    <vehicle id="0.239" depart="0.00">
        <route edges="1to5 5to6 6to11 11to15 15to3"/>
    </vehicle>
    <vehicle id="0.240" depart="0.00">
        <route edges="1to5 5to6 6to11 11to15 15to3"/>
    </vehicle>
    <vehicle id="0.241" depart="0.00">
        <route edges="1to5 5to6 6to11 11to15 15to3"/>
    </vehicle>
    <vehicle id="0.242" depart="0.00">
        <route edges="1to5 5to6 6to11 11to15 15to3"/>
    </vehicle>
    <vehicle id="0.243" depart="0.00">
        <route edges="1to5 5to6 6to11 11to15 15to3"/>
    </vehicle>
    <vehicle id="0.244" depart="0.00">
        <route edges="1to5 5to6 6to11 11to15 15to3"/>
    </vehicle>
    <vehicle id="0.245" depart="0.00">
        <route edges="1to5 5to6 6to11 11to15 15to3"/>
    </vehicle>
    <vehicle id="0.246" depart="0.00">
        <route edges="1to5 5to6 6to11 11to15 15to3"/>
    </vehicle>
    <vehicle id="0.247" depart="0.00">
        <route edges="1to5 5to6 6to11 11to15 15to3"/>
    </vehicle>
    <vehicle id="0.248" depart="0.00">
        <route edges="1to5 5to6 6to11 11to15 15to3"/>
    </vehicle>
    <vehicle id="0.249" depart="0.00">
        <route edges="1to5 5to6 6to11 11to15 15to3"/>
    </vehicle>
    <vehicle id="0.250" depart="0.00">
        <route edges="1to5 5to6 6to11 11to15 15to3"/>
    </vehicle>
    <vehicle id="0.251" depart="0.00">
        <route edges="1to5 5to6 6to11 11to15 15to3"/>
    </vehicle>
    <vehicle id="0.252" depart="0.00">
        <route edges="1to5 5to6 6to11 11to15 15to3"/>
    </vehicle>
    <vehicle id="0.253" depart="0.00">
        <route edges="1to5 5to6 6to11 11to15 15to3"/>
    </vehicle>
    <vehicle id="0.254" depart="0.00">
        <route edges="1to5 5to6 6to11 11to15 15to3"/>
    </vehicle>
    <vehicle id="0.255" depart="0.00">
        <route edges="1to5 5to6 6to11 11to15 15to3"/>
    </vehicle>
    <vehicle id="0.256" depart="0.00">
        <route edges="1to5 5to6 6to11 11to15 15to3"/>
    </vehicle>
    <vehicle id="0.257" depart="0.00">
        <route edges="1to5 5to6 6to11 11to15 15to3"/>
    </vehicle>
    <vehicle id="0.258" depart="0.00">
        <route edges="1to5 5to6 6to11 11to15 15to3"/>
    </vehicle>
    <vehicle id="0.259" depart="0.00">
        <route edges="1to5 5to6 6to11 11to15 15to3"/>
    </vehicle>
    <vehicle id="0.260" depart="0.00">
        <route edges="1to5 5to6 6to11 11to15 15to3"/>
    </vehicle>
    <vehicle id="0.261" depart="0.00">
        <route edges="1to5 5to6 6to11 11to15 15to3"/>
    </vehicle>
    <vehicle id="0.262" depart="0.00">
        <route edges="1to5 5to6 6to11 11to15 15to3"/>
    </vehicle>
    <vehicle id="0.263" depart="0.00">
        <route edges="1to5 5to6 6to11 11to15 15to3"/>
    </vehicle>
    <vehicle id="0.264" depart="0.00">
        <route edges="1to5 5to6 6to11 11to15 15to3"/>
    </vehicle>
    <vehicle id="0.265" depart="0.00">
        <route edges="1to5 5to6 6to11 11to15 15to3"/>
    </vehicle>
    <vehicle id="0.266" depart="0.00">
        <route edges="1to5 5to6 6to11 11to15 15to3"/>
    </vehicle>
    <vehicle id="0.267" depart="0.00">
        <route edges="1to5 5to6 6to11 11to15 15to3"/>
    </vehicle>
    <vehicle id="0.268" depart="0.00">
        <route edges="1to5 5to6 6to11 11to15 15to3"/>
    </vehicle>
    <vehicle id="0.269" depart="0.00">
        <route edges="1to5 5to6 6to11 11to15 15to3"/>
    </vehicle>
    <vehicle id="0.270" depart="0.00">
        <route edges="1to5 5to6 6to11 11to15 15to3"/>
    </vehicle>
    <vehicle id="0.271" depart="0.00">
        <route edges="1to5 5to6 6to11 11to15 15to3"/>
    </vehicle>
    <vehicle id="0.272" depart="0.00">