<?xml version="1.0" encoding="UTF-8"?>
<routes xmlns:xsi="http://www.w3.org/2001/XMLSchema-instance" xsi:noNamespaceSchemaLocation="http://sumo.dlr.de/xsd/routes_file.xsd">
	<vType id="bus" vClass="bus" color="green"/>
	<vType id="default_017" vClass="passenger" color="red"/>
    <vType id="random_017" vClass="passenger" color="red"/>
	<vType id="default_016" vClass="passenger" color="red"/>
    <vType id="random_016" vClass="passenger" color="red"/>
	<vType id="default_015" vClass="passenger" color="red"/>
    <vType id="random_015" vClass="passenger" color="red"/>
	<vType id="default_014" vClass="passenger" color="red"/>
    <vType id="random_014" vClass="passenger" color="red"/>
	<vType id="default_013" vClass="passenger" color="red"/>
    <vType id="random_013" vClass="passenger" color="red"/>
    <vType id="default_012" vClass="passenger" color="red"/>
    <vType id="random_012" vClass="passenger" color="red"/>
	<vType id="default_011" vClass="passenger" color="red"/>
    <vType id="random_011" vClass="passenger" color="red"/>
	<vType id="default_010" vClass="passenger" color="red"/>
    <vType id="random_010" vClass="passenger" color="red"/>
	<vType id="default_009" vClass="passenger" color="red"/>
    <vType id="random_009" vClass="passenger" color="red"/>
	<vType id="default_008" vClass="passenger" color="red"/>
    <vType id="random_008" vClass="passenger" color="red"/>
	<vType id="default_007" vClass="passenger" color="red"/>
    <vType id="random_007" vClass="passenger" color="red"/>
	<vType id="default_006" vClass="passenger" color="red"/>
    <vType id="random_006" vClass="passenger" color="red"/>
	<vType id="default_005" vClass="passenger" color="red"/>
    <vType id="random_005" vClass="passenger" color="red"/>
	<vType id="default_004" vClass="passenger" color="red"/>
    <vType id="random_004" vClass="passenger" color="red"/>
	<vType id="default_003" vClass="passenger" color="red"/>
    <vType id="random_003" vClass="passenger" color="red"/>
	<vType id="default_022" vClass="passenger" color="red"/>
    <vType id="random_022" vClass="passenger" color="red"/>
	<vType id="default_021" vClass="passenger" color="red"/>
    <vType id="random_021" vClass="passenger" color="red"/>
	<vType id="default_020" vClass="passenger" color="red"/>
    <vType id="random_020" vClass="passenger" color="red"/>
	<vType id="default_019" vClass="passenger" color="red"/>
    <vType id="random_019" vClass="passenger" color="red"/>
	<vType id="default_018" vClass="passenger" color="red"/>
    <vType id="random_018" vClass="passenger" color="red"/>
	<vType id="default_002" vClass="passenger" color="red"/>
    <vType id="random_002" vClass="passenger" color="red"/>
	<vType id="default_001" vClass="passenger" color="red"/>
    <vType id="random_001" vClass="passenger" color="red"/>
	<trip id="carIn105842:1" type="default_016" depart="57600.20" from="653473569#5" to="124812857#0"/>
	<trip id="h8750c1:1" type="default_016" depart="57608.50" from="104010354" to="124812857#0"/>
	<trip id="carIn28488:1" type="default_016" depart="57610.20" from="653473569#5" to="124812857#0"/>
	<trip id="carIn21562:1" type="default_016" depart="57610.80" from="201963537#1" to="-653473569#5"/>
	<trip id="carIn106322:1" type="default_016" depart="57611.80" from="653473569#5" to="124812857#0"/>
	<trip id="carIn28951:1" type="default_016" depart="57612.70" from="201963537#1" to="-653473569#5"/>
	<trip id="carIn5482:1" type="default_016" depart="57613.40" from="653473569#5" to="124812857#0"/>
	<trip id="carIn36103:1" type="default_016" depart="57616.00" from="653473569#5" to="124812857#0"/>
	<trip id="carIn102997:1" type="default_016" depart="57618.20" from="653473569#5" to="124812857#0"/>
	<trip id="carIn75554:1" type="default_016" depart="57620.80" from="653473569#5" to="124812857#0"/>
	<trip id="carIn26332:1" type="default_015" depart="57621.00" from="201963537#1" to="104012170"/>
	<trip id="carIn115534:1" type="default_015" depart="57621.40" from="201963537#1" to="104012170"/>
	<trip id="h15808c1:1" type="default_016" depart="57621.60" from="201963537#1" to="104012170"/>
	<trip id="carIn46350:1" type="default_016" depart="57623.20" from="201963537#1" to="-653473569#5"/>
	<trip id="carIn119141:1" type="default_015" depart="57623.30" from="201963537#1" to="104012170"/>
	<trip id="carIn75667:1" type="default_016" depart="57624.60" from="201963537#1" to="-653473569#5"/>
	<trip id="carIn119185:1" type="default_015" depart="57625.20" from="201963537#1" to="104012170"/>
	<trip id="carIn76112:1" type="default_016" depart="57626.00" from="201963537#1" to="-653473569#5"/>
	<trip id="carIn79970:1" type="default_016" depart="57626.80" from="201963537#1" to="104012170"/>
	<trip id="carIn27521:1" type="default_015" depart="57627.50" from="201963537#1" to="-653473569#5"/>
	<trip id="randUni20090:1" type="random_016" depart="57628.00" from="653473569#5" to="124812857#0"/>
	<trip id="carIn27195:1" type="default_016" depart="57628.10" from="201963537#1" to="104012170"/>
	<trip id="carIn130142:1" type="default_015" depart="57629.10" from="201963537#1" to="-653473569#5"/>
	<trip id="randUni34730:1" type="random_016" depart="57630.60" from="201963537#1" to="-653473569#5"/>
	<trip id="carIn96537:1" type="default_016" depart="57630.70" from="201963537#1" to="104012170"/>
	<trip id="h14257c2:1" type="default_016" depart="57632.20" from="201963537#1" to="-653473569#5"/>
	<trip id="carIn26410:1" type="default_016" depart="57632.30" from="201963537#1" to="104012170"/>
	<trip id="60R.41" type="bus" depart="57633.50" from="104010354" to="124812857#0"/>
	<trip id="carIn107084:1" type="default_016" depart="57633.80" from="201963537#1" to="-653473569#5"/>
	<trip id="carIn51024:1" type="default_016" depart="57634.00" from="201963537#1" to="104012170"/>
	<trip id="carIn37268:1" type="default_016" depart="57635.10" from="653473569#5" to="124812857#0"/>
	<trip id="carIn77943:1" type="default_016" depart="57635.40" from="201963537#1" to="-653473569#5"/>
	<trip id="carIn128705:1" type="default_016" depart="57635.70" from="201963537#1" to="104012170"/>
	<trip id="carIn13117:1" type="default_016" depart="57636.60" from="104010354" to="124812857#0"/>
	<trip id="carIn81046:1" type="default_016" depart="57637.00" from="201963537#1" to="-653473569#5"/>
	<trip id="h21989c1:1" type="default_016" depart="57637.30" from="201963537#1" to="104012170"/>
	<trip id="h15382c1:3" type="default_016" depart="57639.10" from="201963537#1" to="-653473569#5"/>
	<trip id="carIn20106:1" type="default_016" depart="57639.50" from="104010354" to="124812857#0"/>
	<trip id="randUni10474:1" type="random_016" depart="57640.00" from="201963537#1" to="-653473569#5"/>
	<trip id="carIn56649:1" type="default_016" depart="57642.20" from="201963537#1" to="-653473569#5"/>
	<trip id="carIn38625:1" type="default_016" depart="57642.30" from="201963537#1" to="-653473569#5"/>
	<trip id="carIn17767:1" type="default_016" depart="57643.70" from="201963537#1" to="-653473569#5"/>
	<trip id="carIn77438:1" type="default_016" depart="57644.20" from="201963537#1" to="-653473569#5"/>
	<trip id="randUni27349:1" type="random_016" depart="57645.10" from="104010354" to="124812857#0"/>
	<trip id="carIn48979:1" type="default_016" depart="57645.20" from="201963537#1" to="-653473569#5"/>
	<trip id="h19804c1:3" type="default_016" depart="57646.20" from="201963537#1" to="-653473569#5"/>
	<trip id="h20403c1:5" type="default_016" depart="57646.60" from="104010354" to="124812857#0"/>
	<trip id="carIn88932:1" type="default_016" depart="57646.70" from="201963537#1" to="-653473569#5"/>
	<trip id="carIn767:1" type="default_016" depart="57648.20" from="201963537#1" to="-653473569#5"/>
	<trip id="carIn73466:1" type="default_016" depart="57648.30" from="104010354" to="124812857#0"/>
	<trip id="carIn64490:1" type="default_016" depart="57649.30" from="201963537#1" to="-653473569#5"/>
	<trip id="carIn107842:1" type="default_016" depart="57650.30" from="201963537#1" to="-653473569#5"/>
	<trip id="carIn3969:1" type="default_016" depart="57652.50" from="201963537#1" to="-653473569#5"/>
	<trip id="carIn129760:1" type="default_016" depart="57660.20" from="653473569#5" to="124812857#0"/>
	<trip id="carIn129626:1" type="default_016" depart="57662.40" from="653473569#5" to="124812857#0"/>
	<trip id="h21130c2:1" type="default_016" depart="57663.40" from="201963537#1" to="104012170"/>
	<trip id="h20539c1:3" type="default_016" depart="57664.80" from="653473569#5" to="124812857#0"/>
	<trip id="h20540c1:1" type="default_016" depart="57665.10" from="201963537#1" to="-653473569#5"/>
	<trip id="carIn36018:1" type="default_016" depart="57666.60" from="104010354" to="-653473569#5"/>
	<trip id="60.39" type="bus" depart="57668.50" from="201963537#1" to="104012170"/>
	<trip id="h2215c1:1" type="default_016" depart="57669.90" from="104010354" to="124812857#0"/>
	<trip id="carIn100220:1" type="default_016" depart="57675.30" from="201963537#1" to="104012170"/>
	<trip id="carIn44740:1" type="default_016" depart="57675.40" from="201963537#1" to="-653473569#5"/>
	<trip id="carIn102740:1" type="default_016" depart="57675.50" from="104010354" to="124812857#0"/>
	<trip id="carIn64859:1" type="default_016" depart="57677.70" from="201963537#1" to="-653473569#5"/>
	<trip id="carIn35345:1" type="default_016" depart="57677.90" from="104010354" to="124812857#0"/>
	<trip id="h3139c1:3" type="default_016" depart="57683.30" from="104010354" to="124812857#0"/>
	<trip id="carIn26407:1" type="default_016" depart="57686.00" from="104010354" to="124812857#0"/>
	<trip id="carIn91254:1" type="default_016" depart="57695.90" from="653473569#5" to="124812857#0"/>
	<trip id="carIn78692:1" type="default_016" depart="57702.00" from="104010354" to="124812857#0"/>
	<trip id="carIn12775:1" type="default_016" depart="57702.50" from="201963537#1" to="-653473569#5"/>
	<trip id="h15353c2:1" type="default_016" depart="57712.60" from="201963537#1" to="-653473569#5"/>
	<trip id="carIn96193:1" type="default_016" depart="57713.10" from="104010354" to="124812857#0"/>
	<trip id="carIn13362:1" type="default_016" depart="57715.40" from="201963537#1" to="-653473569#5"/>
	<trip id="carIn98489:1" type="default_016" depart="57716.40" from="104010354" to="124812857#0"/>
	<trip id="carIn70484:1" type="default_016" depart="57723.40" from="653473569#5" to="104012170"/>
	<trip id="carIn106797:1" type="default_016" depart="57725.00" from="653473569#5" to="124812857#0"/>
	<trip id="h4745c1:1" type="default_016" depart="57725.60" from="104010354" to="124812857#0"/>
	<trip id="carIn99385:1" type="default_016" depart="57725.70" from="201963537#1" to="-653473569#5"/>
	<trip id="carIn26708:1" type="default_016" depart="57726.60" from="653473569#5" to="124812857#0"/>
	<trip id="carIn48988:1" type="default_016" depart="57728.10" from="653473569#5" to="104012170"/>
	<trip id="carIn34550:1" type="default_016" depart="57730.40" from="653473569#5" to="124812857#0"/>
	<trip id="carIn41791:1" type="default_016" depart="57732.20" from="653473569#5" to="124812857#0"/>
	<trip id="carIn13016:1" type="default_016" depart="57735.50" from="653473569#5" to="124812857#0"/>
	<trip id="carIn124270:1" type="default_016" depart="57736.00" from="104010354" to="124812857#0"/>
	<trip id="carIn70477:1" type="default_016" depart="57737.80" from="653473569#5" to="124812857#0"/>
	<trip id="h21189c1:3" type="default_016" depart="57738.40" from="201963537#1" to="104012170"/>
	<trip id="h19989c1:1" type="default_016" depart="57740.10" from="201963537#1" to="-653473569#5"/>
	<trip id="randUni26227:1" type="random_016" depart="57740.50" from="653473569#5" to="124812857#0"/>
	<trip id="carIn92858:1" type="default_016" depart="57741.90" from="201963537#1" to="-653473569#5"/>
	<trip id="carIn101439:1" type="default_016" depart="57743.70" from="201963537#1" to="-653473569#5"/>
	<trip id="carIn84229:1" type="default_016" depart="57745.60" from="201963537#1" to="-653473569#5"/>
	<trip id="carIn7365:1" type="default_016" depart="57748.10" from="201963537#1" to="104012170"/>
	<trip id="carIn16842:1" type="default_016" depart="57750.40" from="201963537#1" to="-653473569#5"/>
	<trip id="randUni5403:1" type="random_016" depart="57753.50" from="104010354" to="-653473569#5"/>
	<trip id="h10915c2:1" type="default_016" depart="57756.20" from="104010354" to="-653473569#5"/>
	<trip id="randUni29093:1" type="random_016" depart="57758.30" from="201963537#1" to="-653473569#5"/>
	<trip id="carIn42651:1" type="default_016" depart="57759.00" from="104010354" to="124812857#0"/>
	<trip id="carIn11547:1" type="default_016" depart="57759.90" from="201963537#1" to="-653473569#5"/>
	<trip id="h18300c2:1" type="default_016" depart="57760.80" from="104010354" to="124812857#0"/>
	<trip id="carIn32621:1" type="default_016" depart="57762.20" from="201963537#1" to="-653473569#5"/>
	<trip id="carIn86816:1" type="default_016" depart="57768.30" from="653473569#5" to="124812857#0"/>
	<trip id="h7328c1:1" type="default_016" depart="57786.00" from="104010354" to="124812857#0"/>
	<trip id="carIn25314:1" type="default_016" depart="57793.70" from="201963537#1" to="-653473569#5"/>
	<trip id="carIn41197:1" type="default_016" depart="57806.60" from="104010354" to="124812857#0"/>
	<trip id="h19105c2:3" type="default_016" depart="57807.40" from="201963537#1" to="-653473569#5"/>
	<trip id="carIn102915:1" type="default_016" depart="57810.10" from="653473569#5" to="124812857#0"/>
	<trip id="randUni33724:1" type="random_016" depart="57811.80" from="653473569#5" to="124812857#0"/>
	<trip id="carIn32135:1" type="default_016" depart="57812.00" from="104010354" to="124812857#0"/>
	<trip id="carIn106296:1" type="default_016" depart="57817.30" from="201963537#1" to="-653473569#5"/>
	<trip id="carIn104643:1" type="default_016" depart="57818.90" from="201963537#1" to="-653473569#5"/>
	<trip id="carIn100288:1" type="default_016" depart="57820.60" from="104010354" to="124812857#0"/>
	<trip id="carIn29531:1" type="default_016" depart="57825.10" from="104010354" to="124812857#0"/>
	<trip id="carIn2912:1" type="default_016" depart="57827.40" from="104010354" to="124812857#0"/>
	<trip id="carIn49437:1" type="default_016" depart="57829.50" from="104010354" to="124812857#0"/>
	<trip id="carIn114105:1" type="default_016" depart="57831.30" from="201963537#1" to="-653473569#5"/>
	<trip id="carIn72316:1" type="default_016" depart="57833.10" from="201963537#1" to="-653473569#5"/>
	<trip id="carIn82399:1" type="default_016" depart="57834.90" from="201963537#1" to="104012170"/>
	<trip id="h18996c2:1" type="default_016" depart="57837.20" from="104010354" to="124812857#0"/>
	<trip id="h3864c1:3" type="default_016" depart="57843.70" from="104010354" to="124812857#0"/>
	<trip id="carIn92532:1" type="default_016" depart="57845.20" from="104010354" to="-653473569#5"/>
	<trip id="randUni14624:1" type="random_016" depart="57848.40" from="104010354" to="-653473569#5"/>
	<trip id="h10591c1:1" type="default_016" depart="57850.20" from="104010354" to="-653473569#5"/>
	<trip id="randUni6170:1" type="random_016" depart="57857.40" from="201963537#1" to="104012170"/>
	<trip id="h15564c1:1" type="default_016" depart="57859.10" from="201963537#1" to="104012170"/>
	<trip id="50R_frequency3.17" type="bus" depart="57860.90" from="653473569#5" to="124812857#0"/>
	<trip id="carIn64958:1" type="default_016" depart="57862.10" from="201963537#1" to="-653473569#5"/>
	<trip id="h18601c1:3" type="default_016" depart="57863.10" from="653473569#5" to="124812857#0"/>
	<trip id="h6245c2:1" type="default_016" depart="57864.50" from="653473569#5" to="104012170"/>
	<trip id="h2483c1:1" type="default_016" depart="57865.80" from="104010354" to="124812857#0"/>
	<trip id="carIn75793:1" type="default_016" depart="57883.20" from="653473569#5" to="104012170"/>
	<trip id="carIn133015:1" type="default_016" depart="57884.40" from="201963537#1" to="-653473569#5"/>
	<trip id="h19571c2:3" type="default_016" depart="57889.40" from="25149219#1" to="-653473569#5"/>
	<trip id="randUni24217:1" type="random_016" depart="57896.40" from="201963537#1" to="-653473569#5"/>
	<trip id="randUni13258:1" type="random_016" depart="57896.40" from="201963537#1" to="104012170"/>
	<trip id="carIn82741:1" type="default_016" depart="57900.30" from="104010354" to="124812857#0"/>
	<trip id="h19249c2:1" type="default_016" depart="57905.20" from="104010354" to="124812857#0"/>
	<trip id="h17593c1:1" type="default_016" depart="57911.50" from="201963537#1" to="-653473569#5"/>
	<trip id="carIn125694:1" type="default_016" depart="57912.40" from="104010354" to="124812857#0"/>
	<trip id="h8072c1:3" type="default_016" depart="57925.90" from="653473569#5" to="104012170"/>
	<trip id="h8633c1:3" type="default_016" depart="57934.40" from="104010354" to="124812857#0"/>
	<trip id="carIn112995:1" type="default_016" depart="57941.50" from="201963537#1" to="-653473569#5"/>
	<trip id="carIn116805:1" type="default_016" depart="57942.70" from="104010354" to="-653473569#5"/>
	<trip id="randUni5976:1" type="random_016" depart="57946.60" from="25149219#1" to="-653473569#5"/>
	<trip id="carIn99578:1" type="default_016" depart="57949.30" from="104010354" to="124812857#0"/>
	<trip id="carIn23683:1" type="default_016" depart="57958.30" from="104010354" to="124812857#0"/>
	<trip id="h15937c1:3" type="default_016" depart="57962.80" from="653473569#5" to="124812857#0"/>
	<trip id="carIn85069:1" type="default_016" depart="57964.30" from="653473569#5" to="104012170"/>
	<trip id="h15472c1:3" type="default_016" depart="57967.30" from="104010354" to="124812857#0"/>
	<trip id="carIn84877:1" type="default_016" depart="57968.60" from="653473569#5" to="124812857#0"/>
	<trip id="h14212c1:3" type="default_016" depart="57970.00" from="25149219#1" to="-653473569#5"/>
	<trip id="carIn96510:1" type="default_016" depart="57970.10" from="104010354" to="124812857#0"/>
	<trip id="carIn9903:1" type="default_016" depart="57971.10" from="653473569#5" to="104012170"/>
	<trip id="carIn119432:1" type="default_016" depart="57972.00" from="104010354" to="124812857#0"/>
	<trip id="h19940c1:1" type="default_016" depart="57972.70" from="25149219#1" to="-653473569#5"/>
	<trip id="carIn60827:1" type="default_016" depart="57975.30" from="25149219#1" to="-653473569#5"/>
	<trip id="h15631c1:1" type="default_016" depart="57977.90" from="25149219#1" to="-653473569#5"/>
	<trip id="carIn56192:1" type="default_016" depart="57980.40" from="653473569#5" to="104012170"/>
	<trip id="carIn84735:1" type="default_016" depart="57980.50" from="25149219#1" to="-653473569#5"/>
	<trip id="carIn114414:1" type="default_016" depart="57982.00" from="653473569#5" to="104012170"/>
	<trip id="carIn67360:1" type="default_016" depart="57983.40" from="201963537#1" to="-653473569#5"/>
	<trip id="carIn12479:1" type="default_016" depart="57993.60" from="104010354" to="124812857#0"/>
	<trip id="h20688c2:1" type="default_016" depart="57998.40" from="25149219#1" to="-653473569#5"/>
	<trip id="carIn41392:1" type="default_016" depart="58002.10" from="104010354" to="124812857#0"/>
	<trip id="h7703c2:3" type="default_016" depart="58003.40" from="25149219#1" to="104012170"/>
	<trip id="randUni11417:1" type="random_016" depart="58009.40" from="201963537#1" to="-653473569#5"/>
	<trip id="carIn72005:1" type="default_016" depart="58012.10" from="25149219#1" to="-653473569#5"/>
	<trip id="carIn68143:1" type="default_016" depart="58014.60" from="25149219#1" to="-653473569#5"/>
	<trip id="carIn11789:1" type="default_016" depart="58017.10" from="25149219#1" to="-653473569#5"/>
	<trip id="h1498c1:1" type="default_016" depart="58018.40" from="653473569#5" to="124812857#0"/>
	<trip id="carIn7612:1" type="default_016" depart="58019.60" from="25149219#1" to="-653473569#5"/>
	<trip id="carIn39729:1" type="default_016" depart="58020.90" from="104010354" to="124812857#0"/>
	<trip id="carIn131497:1" type="default_016" depart="58022.40" from="201963537#1" to="-653473569#5"/>
	<trip id="carIn127325:1" type="default_016" depart="58023.00" from="653473569#5" to="124812857#0"/>
	<trip id="h21908c1:3" type="default_016" depart="58024.10" from="104010354" to="124812857#0"/>
	<trip id="h22816c2:3" type="default_016" depart="58025.90" from="104010354" to="124812857#0"/>
	<trip id="h2510c1:1" type="default_016" depart="58028.20" from="104010354" to="124812857#0"/>
	<trip id="randUni3712:1" type="random_016" depart="58030.60" from="104010354" to="124812857#0"/>
	<trip id="carIn38599:1" type="default_016" depart="58037.80" from="653473569#5" to="124812857#0"/>
	<trip id="randUni2621:1" type="random_016" depart="58045.00" from="653473569#5" to="124812857#0"/>
	<trip id="carIn37367:1" type="default_016" depart="58053.80" from="653473569#5" to="124812857#0"/>
	<trip id="carIn79899:1" type="default_016" depart="58055.10" from="104010354" to="124812857#0"/>
	<trip id="carIn38141:1" type="default_016" depart="58058.10" from="653473569#5" to="104012170"/>
	<trip id="carIn53610:1" type="default_016" depart="58059.40" from="104010354" to="124812857#0"/>
	<trip id="carIn76776:1" type="default_016" depart="58059.70" from="653473569#5" to="104012170"/>
	<trip id="carIn20383:1" type="default_016" depart="58060.30" from="104010354" to="124812857#0"/>
	<trip id="carIn68993:1" type="default_016" depart="58062.40" from="104010354" to="124812857#0"/>
	<trip id="carIn24856:1" type="default_016" depart="58063.00" from="25149219#1" to="-653473569#5"/>
	<trip id="carIn10740:1" type="default_016" depart="58064.10" from="104010354" to="124812857#0"/>
	<trip id="carIn98213:1" type="default_016" depart="58065.70" from="25149219#1" to="-653473569#5"/>
	<trip id="h923c1:1" type="default_016" depart="58068.20" from="25149219#1" to="-653473569#5"/>
	<trip id="randUni10337:1" type="random_016" depart="58069.40" from="201963537#1" to="-653473569#5"/>
	<trip id="carIn127284:1" type="default_016" depart="58070.60" from="653473569#5" to="104012170"/>
	<trip id="carIn127301:1" type="default_016" depart="58070.80" from="25149219#1" to="-653473569#5"/>
	<trip id="h10915c1:1" type="default_016" depart="58072.40" from="201963537#1" to="-653473569#5"/>
	<trip id="carIn32403:1" type="default_016" depart="58073.40" from="25149219#1" to="-653473569#5"/>
	<trip id="carIn17428:1" type="default_016" depart="58087.00" from="104010354" to="124812857#0"/>
	<trip id="carIn90208:1" type="default_016" depart="58089.60" from="104010354" to="124812857#0"/>
	<trip id="carIn19971:1" type="default_016" depart="58095.10" from="104010354" to="124812857#0"/>
	<trip id="carIn116330:1" type="default_016" depart="58097.60" from="104010354" to="124812857#0"/>
	<trip id="carIn62536:1" type="default_016" depart="58100.20" from="104010354" to="124812857#0"/>
	<trip id="carIn29260:1" type="default_016" depart="58102.80" from="25149219#1" to="-653473569#5"/>
	<trip id="carIn39560:1" type="default_016" depart="58102.80" from="104010354" to="124812857#0"/>
	<trip id="carIn52219:1" type="default_016" depart="58105.10" from="25149219#1" to="-653473569#5"/>
	<trip id="carIn123383:1" type="default_016" depart="58114.00" from="25149219#1" to="-653473569#5"/>
	<trip id="carIn68387:1" type="default_016" depart="58115.30" from="104010354" to="124812857#0"/>
	<trip id="h21566c2:1" type="default_016" depart="58116.50" from="25149219#1" to="-653473569#5"/>
	<trip id="h21004c2:1" type="default_016" depart="58119.00" from="25149219#1" to="-653473569#5"/>
	<trip id="carIn88113:1" type="default_016" depart="58121.50" from="25149219#1" to="-653473569#5"/>
	<trip id="carIn3522:1" type="default_016" depart="58124.00" from="25149219#1" to="-653473569#5"/>
	<trip id="carIn48247:1" type="default_016" depart="58125.50" from="653473569#5" to="104012170"/>
	<trip id="h22316c2:1" type="default_016" depart="58126.50" from="25149219#1" to="-653473569#5"/>
	<trip id="carIn2369:1" type="default_016" depart="58127.00" from="653473569#5" to="124812857#0"/>
	<trip id="carIn56385:1" type="default_015" depart="58128.40" from="201963537#1" to="-653473569#5"/>
	<trip id="carIn64375:1" type="default_016" depart="58130.20" from="25149219#1" to="-653473569#5"/>
	<trip id="carIn123917:1" type="default_016" depart="58132.80" from="25149219#1" to="-653473569#5"/>
	<trip id="carIn128652:1" type="default_016" depart="58135.50" from="25149219#1" to="-653473569#5"/>
	<trip id="h8445c2:3" type="default_016" depart="58138.30" from="25149219#1" to="104012170"/>
	<trip id="h23154c1:1" type="default_016" depart="58141.10" from="25149219#1" to="-653473569#5"/>
	<trip id="randUni31946:1" type="random_016" depart="58147.30" from="104010354" to="124812857#0"/>
	<trip id="h3063c2:1" type="default_016" depart="58149.90" from="104010354" to="124812857#0"/>
	<trip id="carIn34148:1" type="default_016" depart="58152.10" from="25149219#1" to="-653473569#5"/>
	<trip id="carIn94927:1" type="default_016" depart="58152.60" from="104010354" to="124812857#0"/>
	<trip id="carIn68997:1" type="default_016" depart="58154.40" from="104010354" to="124812857#0"/>
	<trip id="carIn37169:1" type="default_016" depart="58154.60" from="25149219#1" to="104012170"/>
	<trip id="carIn50343:1" type="default_016" depart="58156.40" from="104010354" to="124812857#0"/>
	<trip id="carIn37120:1" type="default_016" depart="58157.00" from="25149219#1" to="104012170"/>
	<trip id="carIn12160:1" type="default_016" depart="58158.30" from="104010354" to="124812857#0"/>
	<trip id="h6245c2:3" type="default_016" depart="58159.40" from="25149219#1" to="-653473569#5"/>
	<trip id="carIn19920:1" type="default_016" depart="58159.50" from="653473569#5" to="124812857#0"/>
	<trip id="carIn34418:1" type="default_016" depart="58161.80" from="25149219#1" to="-653473569#5"/>
	<trip id="carIn41120:1" type="default_016" depart="58164.20" from="25149219#1" to="104012170"/>
	<trip id="h576c1:1" type="default_016" depart="58166.40" from="201963537#1" to="-653473569#5"/>
	<trip id="carIn86468:1" type="default_016" depart="58169.80" from="104010354" to="124812857#0"/>
	<trip id="carIn12663:1" type="default_016" depart="58173.20" from="104010354" to="124812857#0"/>
	<trip id="carIn20162:1" type="default_016" depart="58175.50" from="104010354" to="124812857#0"/>
	<trip id="carIn5778:1" type="default_016" depart="58178.50" from="104010354" to="124812857#0"/>
	<trip id="carIn5041:1" type="default_016" depart="58181.30" from="104010354" to="124812857#0"/>
	<trip id="carIn127632:1" type="default_016" depart="58183.30" from="104010354" to="124812857#0"/>
	<trip id="carIn56251:1" type="default_016" depart="58185.40" from="104010354" to="124812857#0"/>
	<trip id="carIn77315:1" type="default_016" depart="58188.80" from="104010354" to="124812857#0"/>
	<trip id="h6054c1:2" type="default_016" depart="58203.50" from="25149219#1" to="104012170"/>
	<trip id="randUni18940:1" type="random_016" depart="58205.30" from="104010354" to="124812857#0"/>
	<trip id="carIn66513:1" type="default_016" depart="58205.80" from="25149219#1" to="104012170"/>
	<trip id="randUni19887:1" type="random_016" depart="58210.40" from="201963537#1" to="-653473569#5"/>
	<trip id="h15400c2:1" type="default_016" depart="58220.00" from="201963537#1" to="104012170"/>
	<trip id="h21824c1:1" type="default_016" depart="58220.30" from="201963537#1" to="104012170"/>
	<trip id="carIn126777:1" type="default_016" depart="58220.50" from="201963537#1" to="104012170"/>
	<trip id="carIn89965:1" type="default_016" depart="58221.90" from="201963537#1" to="104012170"/>
	<trip id="carIn49867:1" type="default_016" depart="58222.70" from="201963537#1" to="104012170"/>
	<trip id="carIn8883:1" type="default_016" depart="58224.40" from="201963537#1" to="104012170"/>
	<trip id="carIn15039:1" type="default_016" depart="58224.40" from="201963537#1" to="104012170"/>
	<trip id="h15464c1:1" type="default_016" depart="58225.90" from="201963537#1" to="104012170"/>
	<trip id="h8685c2:3" type="default_016" depart="58226.00" from="201963537#1" to="104012170"/>
	<trip id="carIn128043:1" type="default_016" depart="58227.50" from="201963537#1" to="104012170"/>
	<trip id="carIn1027:1" type="default_016" depart="58229.00" from="201963537#1" to="104012170"/>
	<trip id="carIn113388:1" type="default_016" depart="58230.10" from="201963537#1" to="104012170"/>
	<trip id="carIn127546:1" type="default_016" depart="58232.40" from="653473569#5" to="124812857#0"/>
	<trip id="carIn121427:1" type="default_016" depart="58236.50" from="653473569#5" to="104012170"/>
	<trip id="h8213c1:1" type="default_016" depart="58237.40" from="104010354" to="124812857#0"/>
	<trip id="carIn36263:1" type="default_016" depart="58239.30" from="104010354" to="-653473569#5"/>
	<trip id="carIn35162:1" type="default_016" depart="58239.80" from="104010354" to="124812857#0"/>
	<trip id="randUni3772:1" type="random_016" depart="58241.10" from="653473569#5" to="124812857#0"/>
	<trip id="carIn42850:1" type="default_016" depart="58241.30" from="104010354" to="124812857#0"/>
	<trip id="carIn77862:1" type="default_016" depart="58243.90" from="104010354" to="124812857#0"/>
	<trip id="h19118c1:3" type="default_016" depart="58245.70" from="104010354" to="124812857#0"/>
	<trip id="carIn30844:1" type="default_016" depart="58250.00" from="201963537#1" to="104012170"/>
	<trip id="carIn98523:1" type="default_016" depart="58251.00" from="201963537#1" to="104012170"/>
	<trip id="h8478c1:3" type="default_016" depart="58252.40" from="201963537#1" to="104012170"/>
	<trip id="carIn103533:1" type="default_016" depart="58252.50" from="201963537#1" to="104012170"/>
	<trip id="carIn6929:1" type="default_016" depart="58253.90" from="201963537#1" to="104012170"/>
	<trip id="carIn86501:1" type="default_016" depart="58254.00" from="201963537#1" to="104012170"/>
	<trip id="randUni13455:1" type="random_016" depart="58255.60" from="201963537#1" to="104012170"/>
	<trip id="h2865c2:1" type="default_016" depart="58257.00" from="653473569#5" to="104012170"/>
	<trip id="carIn53389:1" type="default_016" depart="58257.30" from="201963537#1" to="104012170"/>