<?xml version="1.0" encoding="UTF-8"?>

<!-- generated on 2025-02-24 01:43:58 by Eclipse SUMO netedit Version 1.20.0
-->

<routes xmlns:xsi="http://www.w3.org/2001/XMLSchema-instance" xsi:noNamespaceSchemaLocation="http://sumo.dlr.de/xsd/routes_file.xsd">
    <!-- Vehicles, persons and containers (sorted by depart) -->
    <flow id="flow-11-11" begin="0.00" end="100.00" vehsPerHour="100" departLane="best" departPos="base" departSpeed="max" color="blue" from="E11" to="-E11"/>
    <flow id="flow-13-11" begin="0.00" end="100.00" vehsPerHour="100" departLane="best" departPos="base" departSpeed="max" color="blue" from="E13" to="-E13"/>
    <flow id="flow-18-11" begin="0.00" end="100.00" vehsPerHour="100" departLane="best" departPos="base" departSpeed="max" color="blue" from="E18" to="-E11"/>
    <flow id="flow-19-11" begin="0.00" end="100.00" vehsPerHour="100" departLane="best" departPos="base" departSpeed="max" color="blue" from="E19" to="-E13"/>
    <flow id="flow-11-13" begin="2.50" end="100.00" vehsPerHour="100" departLane="best" departPos="base" departSpeed="max" color="green" from="E11" to="-E13"/>
    <flow id="flow-13-13" begin="2.50" end="100.00" vehsPerHour="100" departLane="best" departPos="base" departSpeed="max" color="green" from="E13" to="-E13"/>
    <flow id="flow-18-13" begin="2.50" end="100.00" vehsPerHour="100" departLane="best" departPos="base" departSpeed="max" color="green" from="E18" to="-E13"/>
    <flow id="flow-19-13" begin="2.50" end="100.00" vehsPerHour="100" departLane="best" departPos="base" departSpeed="max" color="green" from="E19" to="-E13"/>
    <flow id="flow-11-18" begin="5.00" end="100.00" vehsPerHour="100" departLane="best" departPos="base" departSpeed="max" color="red" from="E11" to="-E18"/>
    <flow id="flow-13-18" begin="5.00" end="100.00" vehsPerHour="100" departLane="best" departPos="base" departSpeed="max" color="red" from="E13" to="-E18"/>
    <flow id="flow-18-18" begin="5.00" end="100.00" vehsPerHour="100" departLane="best" departPos="base" departSpeed="max" color="red" from="E18" to="-E18"/>
    <flow id="flow-19-18" begin="5.00" end="100.00" vehsPerHour="100" departLane="best" departPos="base" departSpeed="max" color="red" from="E19" to="-E18"/>
    <flow id="flow-11-19" begin="7.50" end="100.00" vehsPerHour="100" departLane="best" departPos="base" departSpeed="max" color="yellow" from="E11" to="-E19"/>
    <flow id="flow-13-19" begin="7.50" end="100.00" vehsPerHour="100" departLane="best" departPos="base" departSpeed="max" color="yellow" from="E13" to="-E19"/>
    <flow id="flow-18-19" begin="7.50" end="100.00" vehsPerHour="100" departLane="best" departPos="base" departSpeed="max" color="yellow" from="E18" to="-E19"/>
    <flow id="flow-19-19" begin="7.50" end="100.00" vehsPerHour="100" departLane="best" departPos="base" departSpeed="max" color="yellow" from="E19" to="-E19"/>
</routes>
