<?xml version="1.0" encoding="UTF-8"?>

<!-- generated on Sex 18 Nov 2016 10:20:17 BRST by Netedit Version 0.25.0
<?xml version="1.0" encoding="UTF-8"?>

<configuration xmlns:xsi="http://www.w3.org/2001/XMLSchema-instance" xsi:noNamespaceSchemaLocation="http://sumo.dlr.de/xsd/netedit.exeConfiguration.xsd">

    <input>
        <sumo-net-file value="/home/gauss/lllemos/3x3Grid/networkFiles/3x3GridTeste.net.xml"/>
    </input>

    <output>
        <output-file value="/home/gauss/lllemos/3x3Grid/networkFiles/3x3GridTeste.net.xml"/>
    </output>

    <processing>
        <no-turnarounds value="true"/>
        <offset.disable-normalization value="true"/>
        <lefthand value="false"/>
        <junctions.corner-detail value="0"/>
    </processing>

    <visualisation>
        <registry-viewport value="true"/>
    </visualisation>

</configuration>
-->

<net version="0.25" xmlns:xsi="http://www.w3.org/2001/XMLSchema-instance" xsi:noNamespaceSchemaLocation="http://sumo.dlr.de/xsd/net_file.xsd">

    <location netOffset="250.00,550.00" convBoundary="0.00,0.00,800.00,800.00" origBoundary="-250.00,-550.00,550.00,250.00" projParameter="!"/>

    <edge id=":0_0" function="internal">
        <lane id=":0_0_0" index="0" speed="13.89" length="5.00" shape="245.05,558.05 244.86,556.69 244.28,555.73 243.31,555.14 241.95,554.95"/>
    </edge>
    <edge id=":0_1" function="internal">
        <lane id=":0_1_0" index="0" speed="13.89" length="16.10" shape="245.05,558.05 245.05,553.27 245.05,550.00 245.05,546.73 245.05,541.95"/>
        <lane id=":0_1_1" index="1" speed="13.89" length="16.10" shape="248.35,558.05 248.35,553.27 248.35,550.00 248.35,546.73 248.35,541.95"/>
    </edge>
    <edge id=":0_3" function="internal">
        <lane id=":0_3_0" index="0" speed="13.89" length="6.41" shape="248.35,558.05 248.96,553.81 250.05,551.98"/>
    </edge>
    <edge id=":0_16" function="internal">
        <lane id=":0_16_0" index="0" speed="13.89" length="9.23" shape="250.05,551.98 250.77,550.77 253.81,548.96 258.05,548.35"/>
    </edge>
    <edge id=":0_4" function="internal">
        <lane id=":0_4_0" index="0" speed="13.89" length="5.00" shape="258.05,554.95 256.69,555.14 255.73,555.73 255.14,556.69 254.95,558.05"/>
    </edge>
    <edge id=":0_5" function="internal">
        <lane id=":0_5_0" index="0" speed="13.89" length="16.10" shape="258.05,554.95 253.27,554.95 250.00,554.95 246.73,554.95 241.95,554.95"/>
        <lane id=":0_5_1" index="1" speed="13.89" length="16.10" shape="258.05,551.65 253.27,551.65 250.00,551.65 246.73,551.65 241.95,551.65"/>
    </edge>
    <edge id=":0_7" function="internal">
        <lane id=":0_7_0" index="0" speed="13.89" length="6.41" shape="258.05,551.65 253.81,551.04 251.98,549.95"/>
    </edge>
    <edge id=":0_17" function="internal">
        <lane id=":0_17_0" index="0" speed="13.89" length="9.23" shape="251.98,549.95 250.78,549.22 248.96,546.19 248.35,541.95"/>
    </edge>
    <edge id=":0_8" function="internal">
        <lane id=":0_8_0" index="0" speed="13.89" length="5.00" shape="254.95,541.95 255.14,543.31 255.72,544.27 256.69,544.86 258.05,545.05"/>
    </edge>
    <edge id=":0_9" function="internal">
        <lane id=":0_9_0" index="0" speed="13.89" length="16.10" shape="254.95,541.95 254.95,546.73 254.95,550.00 254.95,553.27 254.95,558.05"/>
        <lane id=":0_9_1" index="1" speed="13.89" length="16.10" shape="251.65,541.95 251.65,546.73 251.65,550.00 251.65,553.27 251.65,558.05"/>
    </edge>
    <edge id=":0_11" function="internal">
        <lane id=":0_11_0" index="0" speed="13.89" length="6.41" shape="251.65,541.95 251.04,546.19 249.95,548.02"/>
    </edge>
    <edge id=":0_18" function="internal">
        <lane id=":0_18_0" index="0" speed="13.89" length="9.23" shape="249.95,548.02 249.23,549.23 246.19,551.04 241.95,551.65"/>
    </edge>
    <edge id=":0_12" function="internal">
        <lane id=":0_12_0" index="0" speed="13.89" length="5.00" shape="241.95,545.05 243.31,544.86 244.28,544.27 244.86,543.31 245.05,541.95"/>
    </edge>
    <edge id=":0_13" function="internal">
        <lane id=":0_13_0" index="0" speed="13.89" length="16.10" shape="241.95,545.05 246.73,545.05 250.00,545.05 253.27,545.05 258.05,545.05"/>
        <lane id=":0_13_1" index="1" speed="13.89" length="16.10" shape="241.95,548.35 246.73,548.35 250.00,548.35 253.27,548.35 258.05,548.35"/>
    </edge>
    <edge id=":0_15" function="internal">
        <lane id=":0_15_0" index="0" speed="13.89" length="6.41" shape="241.95,548.35 246.19,548.96 248.02,550.05"/>
    </edge>
    <edge id=":0_19" function="internal">
        <lane id=":0_19_0" index="0" speed="13.89" length="9.23" shape="248.02,550.05 249.22,550.78 251.04,553.81 251.65,558.05"/>
    </edge>
    <edge id=":1_0" function="internal">
        <lane id=":1_0_0" index="0" speed="13.89" length="5.00" shape="395.05,558.05 394.86,556.69 394.28,555.73 393.31,555.14 391.95,554.95"/>
    </edge>
    <edge id=":1_1" function="internal">
        <lane id=":1_1_0" index="0" speed="13.89" length="16.10" shape="395.05,558.05 395.05,553.27 395.05,550.00 395.05,546.73 395.05,541.95"/>
        <lane id=":1_1_1" index="1" speed="13.89" length="16.10" shape="398.35,558.05 398.35,553.27 398.35,550.00 398.35,546.73 398.35,541.95"/>
    </edge>
    <edge id=":1_3" function="internal">
        <lane id=":1_3_0" index="0" speed="13.89" length="6.41" shape="398.35,558.05 398.96,553.81 400.05,551.98"/>
    </edge>
    <edge id=":1_16" function="internal">
        <lane id=":1_16_0" index="0" speed="13.89" length="9.23" shape="400.05,551.98 400.78,550.77 403.81,548.96 408.05,548.35"/>
    </edge>
    <edge id=":1_4" function="internal">
        <lane id=":1_4_0" index="0" speed="13.89" length="5.00" shape="408.05,554.95 406.69,555.14 405.73,555.73 405.14,556.69 404.95,558.05"/>
    </edge>
    <edge id=":1_5" function="internal">
        <lane id=":1_5_0" index="0" speed="13.89" length="16.10" shape="408.05,554.95 403.27,554.95 400.00,554.95 396.73,554.95 391.95,554.95"/>
        <lane id=":1_5_1" index="1" speed="13.89" length="16.10" shape="408.05,551.65 403.27,551.65 400.00,551.65 396.73,551.65 391.95,551.65"/>
    </edge>
    <edge id=":1_7" function="internal">
        <lane id=":1_7_0" index="0" speed="13.89" length="6.41" shape="408.05,551.65 403.81,551.04 401.98,549.95"/>
    </edge>
    <edge id=":1_17" function="internal">
        <lane id=":1_17_0" index="0" speed="13.89" length="9.23" shape="401.98,549.95 400.77,549.22 398.96,546.19 398.35,541.95"/>
    </edge>
    <edge id=":1_8" function="internal">
        <lane id=":1_8_0" index="0" speed="13.89" length="5.00" shape="404.95,541.95 405.14,543.31 405.72,544.27 406.69,544.86 408.05,545.05"/>
    </edge>
    <edge id=":1_9" function="internal">
        <lane id=":1_9_0" index="0" speed="13.89" length="16.10" shape="404.95,541.95 404.95,546.73 404.95,550.00 404.95,553.27 404.95,558.05"/>
        <lane id=":1_9_1" index="1" speed="13.89" length="16.10" shape="401.65,541.95 401.65,546.73 401.65,550.00 401.65,553.27 401.65,558.05"/>
    </edge>
    <edge id=":1_11" function="internal">
        <lane id=":1_11_0" index="0" speed="13.89" length="6.41" shape="401.65,541.95 401.04,546.19 399.95,548.02"/>
    </edge>
    <edge id=":1_18" function="internal">
        <lane id=":1_18_0" index="0" speed="13.89" length="9.23" shape="399.95,548.02 399.22,549.23 396.19,551.04 391.95,551.65"/>
    </edge>
    <edge id=":1_12" function="internal">
        <lane id=":1_12_0" index="0" speed="13.89" length="5.00" shape="391.95,545.05 393.31,544.86 394.27,544.27 394.86,543.31 395.05,541.95"/>
    </edge>
    <edge id=":1_13" function="internal">
        <lane id=":1_13_0" index="0" speed="13.89" length="16.10" shape="391.95,545.05 396.73,545.05 400.00,545.05 403.27,545.05 408.05,545.05"/>
        <lane id=":1_13_1" index="1" speed="13.89" length="16.10" shape="391.95,548.35 396.73,548.35 400.00,548.35 403.27,548.35 408.05,548.35"/>
    </edge>
    <edge id=":1_15" function="internal">
        <lane id=":1_15_0" index="0" speed="13.89" length="6.41" shape="391.95,548.35 396.19,548.96 398.02,550.05"/>
    </edge>
    <edge id=":1_19" function="internal">
        <lane id=":1_19_0" index="0" speed="13.89" length="9.23" shape="398.02,550.05 399.23,550.78 401.04,553.81 401.65,558.05"/>
    </edge>
    <edge id=":2_0" function="internal">
        <lane id=":2_0_0" index="0" speed="13.89" length="5.00" shape="545.05,558.05 544.86,556.69 544.27,555.73 543.31,555.14 541.95,554.95"/>
    </edge>
    <edge id=":2_1" function="internal">
        <lane id=":2_1_0" index="0" speed="13.89" length="16.10" shape="545.05,558.05 545.05,553.27 545.05,550.00 545.05,546.73 545.05,541.95"/>
        <lane id=":2_1_1" index="1" speed="13.89" length="16.10" shape="548.35,558.05 548.35,553.27 548.35,550.00 548.35,546.73 548.35,541.95"/>
    </edge>
    <edge id=":2_3" function="internal">
        <lane id=":2_3_0" index="0" speed="13.89" length="6.41" shape="548.35,558.05 548.96,553.81 550.05,551.98"/>
    </edge>
    <edge id=":2_16" function="internal">
        <lane id=":2_16_0" index="0" speed="13.89" length="9.23" shape="550.05,551.98 550.78,550.77 553.81,548.96 558.05,548.35"/>
    </edge>
    <edge id=":2_4" function="internal">
        <lane id=":2_4_0" index="0" speed="13.89" length="5.00" shape="558.05,554.95 556.69,555.14 555.73,555.73 555.14,556.69 554.95,558.05"/>
    </edge>
    <edge id=":2_5" function="internal">
        <lane id=":2_5_0" index="0" speed="13.89" length="16.10" shape="558.05,554.95 553.27,554.95 550.00,554.95 546.73,554.95 541.95,554.95"/>
        <lane id=":2_5_1" index="1" speed="13.89" length="16.10" shape="558.05,551.65 553.27,551.65 550.00,551.65 546.73,551.65 541.95,551.65"/>
    </edge>
    <edge id=":2_7" function="internal">
        <lane id=":2_7_0" index="0" speed="13.89" length="6.41" shape="558.05,551.65 553.81,551.04 551.98,549.95"/>
    </edge>
    <edge id=":2_17" function="internal">
        <lane id=":2_17_0" index="0" speed="13.89" length="9.23" shape="551.98,549.95 550.77,549.22 548.96,546.19 548.35,541.95"/>
    </edge>
    <edge id=":2_8" function="internal">
        <lane id=":2_8_0" index="0" speed="13.89" length="5.00" shape="554.95,541.95 555.14,543.31 555.73,544.27 556.69,544.86 558.05,545.05"/>
    </edge>
    <edge id=":2_9" function="internal">
        <lane id=":2_9_0" index="0" speed="13.89" length="16.10" shape="554.95,541.95 554.95,546.73 554.95,550.00 554.95,553.27 554.95,558.05"/>
        <lane id=":2_9_1" index="1" speed="13.89" length="16.10" shape="551.65,541.95 551.65,546.73 551.65,550.00 551.65,553.27 551.65,558.05"/>
    </edge>
    <edge id=":2_11" function="internal">
        <lane id=":2_11_0" index="0" speed="13.89" length="6.41" shape="551.65,541.95 551.04,546.19 549.95,548.02"/>
    </edge>
    <edge id=":2_18" function="internal">
        <lane id=":2_18_0" index="0" speed="13.89" length="9.23" shape="549.95,548.02 549.22,549.23 546.19,551.04 541.95,551.65"/>
    </edge>
    <edge id=":2_12" function="internal">
        <lane id=":2_12_0" index="0" speed="13.89" length="5.00" shape="541.95,545.05 543.31,544.86 544.27,544.27 544.86,543.31 545.05,541.95"/>
    </edge>
    <edge id=":2_13" function="internal">
        <lane id=":2_13_0" index="0" speed="13.89" length="16.10" shape="541.95,545.05 546.73,545.05 550.00,545.05 553.27,545.05 558.05,545.05"/>
        <lane id=":2_13_1" index="1" speed="13.89" length="16.10" shape="541.95,548.35 546.73,548.35 550.00,548.35 553.27,548.35 558.05,548.35"/>
    </edge>
    <edge id=":2_15" function="internal">
        <lane id=":2_15_0" index="0" speed="13.89" length="6.41" shape="541.95,548.35 546.19,548.96 548.02,550.05"/>
    </edge>
    <edge id=":2_19" function="internal">
        <lane id=":2_19_0" index="0" speed="13.89" length="9.23" shape="548.02,550.05 549.23,550.78 551.04,553.81 551.65,558.05"/>
    </edge>
    <edge id=":3_0" function="internal">
        <lane id=":3_0_0" index="0" speed="13.89" length="5.00" shape="245.05,408.05 244.86,406.69 244.28,405.73 243.31,405.14 241.95,404.95"/>
    </edge>
    <edge id=":3_1" function="internal">
        <lane id=":3_1_0" index="0" speed="13.89" length="16.10" shape="245.05,408.05 245.05,403.27 245.05,400.00 245.05,396.73 245.05,391.95"/>
        <lane id=":3_1_1" index="1" speed="13.89" length="16.10" shape="248.35,408.05 248.35,403.27 248.35,400.00 248.35,396.73 248.35,391.95"/>
    </edge>
    <edge id=":3_3" function="internal">
        <lane id=":3_3_0" index="0" speed="13.89" length="6.41" shape="248.35,408.05 248.96,403.81 250.05,401.98"/>
    </edge>
    <edge id=":3_16" function="internal">
        <lane id=":3_16_0" index="0" speed="13.89" length="9.23" shape="250.05,401.98 250.77,400.77 253.81,398.96 258.05,398.35"/>
    </edge>
    <edge id=":3_4" function="internal">
        <lane id=":3_4_0" index="0" speed="13.89" length="5.00" shape="258.05,404.95 256.69,405.14 255.73,405.72 255.14,406.69 254.95,408.05"/>
    </edge>
    <edge id=":3_5" function="internal">
        <lane id=":3_5_0" index="0" speed="13.89" length="16.10" shape="258.05,404.95 253.27,404.95 250.00,404.95 246.73,404.95 241.95,404.95"/>
        <lane id=":3_5_1" index="1" speed="13.89" length="16.10" shape="258.05,401.65 253.27,401.65 250.00,401.65 246.73,401.65 241.95,401.65"/>
    </edge>
    <edge id=":3_7" function="internal">
        <lane id=":3_7_0" index="0" speed="13.89" length="6.41" shape="258.05,401.65 253.81,401.04 251.98,399.95"/>
    </edge>
    <edge id=":3_17" function="internal">
        <lane id=":3_17_0" index="0" speed="13.89" length="9.23" shape="251.98,399.95 250.78,399.22 248.96,396.19 248.35,391.95"/>
    </edge>
    <edge id=":3_8" function="internal">
        <lane id=":3_8_0" index="0" speed="13.89" length="5.00" shape="254.95,391.95 255.14,393.31 255.72,394.27 256.69,394.86 258.05,395.05"/>
    </edge>
    <edge id=":3_9" function="internal">
        <lane id=":3_9_0" index="0" speed="13.89" length="16.10" shape="254.95,391.95 254.95,396.73 254.95,400.00 254.95,403.27 254.95,408.05"/>
        <lane id=":3_9_1" index="1" speed="13.89" length="16.10" shape="251.65,391.95 251.65,396.73 251.65,400.00 251.65,403.27 251.65,408.05"/>
    </edge>
    <edge id=":3_11" function="internal">
        <lane id=":3_11_0" index="0" speed="13.89" length="6.41" shape="251.65,391.95 251.04,396.19 249.95,398.02"/>
    </edge>
    <edge id=":3_18" function="internal">
        <lane id=":3_18_0" index="0" speed="13.89" length="9.23" shape="249.95,398.02 249.23,399.23 246.19,401.04 241.95,401.65"/>
    </edge>
    <edge id=":3_12" function="internal">
        <lane id=":3_12_0" index="0" speed="13.89" length="5.00" shape="241.95,395.05 243.31,394.86 244.28,394.28 244.86,393.31 245.05,391.95"/>
    </edge>
    <edge id=":3_13" function="internal">
        <lane id=":3_13_0" index="0" speed="13.89" length="16.10" shape="241.95,395.05 246.73,395.05 250.00,395.05 253.27,395.05 258.05,395.05"/>
        <lane id=":3_13_1" index="1" speed="13.89" length="16.10" shape="241.95,398.35 246.73,398.35 250.00,398.35 253.27,398.35 258.05,398.35"/>
    </edge>
    <edge id=":3_15" function="internal">
        <lane id=":3_15_0" index="0" speed="13.89" length="6.41" shape="241.95,398.35 246.19,398.96 248.02,400.05"/>
    </edge>
    <edge id=":3_19" function="internal">
        <lane id=":3_19_0" index="0" speed="13.89" length="9.23" shape="248.02,400.05 249.22,400.78 251.04,403.81 251.65,408.05"/>
    </edge>
    <edge id=":4_0" function="internal">
        <lane id=":4_0_0" index="0" speed="13.89" length="5.00" shape="395.05,408.05 394.86,406.69 394.28,405.73 393.31,405.14 391.95,404.95"/>
    </edge>
    <edge id=":4_1" function="internal">
        <lane id=":4_1_0" index="0" speed="13.89" length="16.10" shape="395.05,408.05 395.05,403.27 395.05,400.00 395.05,396.73 395.05,391.95"/>
        <lane id=":4_1_1" index="1" speed="13.89" length="16.10" shape="398.35,408.05 398.35,403.27 398.35,400.00 398.35,396.73 398.35,391.95"/>
    </edge>
    <edge id=":4_3" function="internal">
        <lane id=":4_3_0" index="0" speed="13.89" length="6.41" shape="398.35,408.05 398.96,403.81 400.05,401.98"/>
    </edge>
    <edge id=":4_16" function="internal">
        <lane id=":4_16_0" index="0" speed="13.89" length="9.23" shape="400.05,401.98 400.78,400.77 403.81,398.96 408.05,398.35"/>
    </edge>
    <edge id=":4_4" function="internal">
        <lane id=":4_4_0" index="0" speed="13.89" length="5.00" shape="408.05,404.95 406.69,405.14 405.73,405.72 405.14,406.69 404.95,408.05"/>
    </edge>
    <edge id=":4_5" function="internal">
        <lane id=":4_5_0" index="0" speed="13.89" length="16.10" shape="408.05,404.95 403.27,404.95 400.00,404.95 396.73,404.95 391.95,404.95"/>
        <lane id=":4_5_1" index="1" speed="13.89" length="16.10" shape="408.05,401.65 403.27,401.65 400.00,401.65 396.73,401.65 391.95,401.65"/>
    </edge>
    <edge id=":4_7" function="internal">
        <lane id=":4_7_0" index="0" speed="13.89" length="6.41" shape="408.05,401.65 403.81,401.04 401.98,399.95"/>
    </edge>
    <edge id=":4_17" function="internal">
        <lane id=":4_17_0" index="0" speed="13.89" length="9.23" shape="401.98,399.95 400.77,399.22 398.96,396.19 398.35,391.95"/>
    </edge>
    <edge id=":4_8" function="internal">
        <lane id=":4_8_0" index="0" speed="13.89" length="5.00" shape="404.95,391.95 405.14,393.31 405.72,394.27 406.69,394.86 408.05,395.05"/>
    </edge>
    <edge id=":4_9" function="internal">
        <lane id=":4_9_0" index="0" speed="13.89" length="16.10" shape="404.95,391.95 404.95,396.73 404.95,400.00 404.95,403.27 404.95,408.05"/>
        <lane id=":4_9_1" index="1" speed="13.89" length="16.10" shape="401.65,391.95 401.65,396.73 401.65,400.00 401.65,403.27 401.65,408.05"/>
    </edge>
    <edge id=":4_11" function="internal">
        <lane id=":4_11_0" index="0" speed="13.89" length="6.41" shape="401.65,391.95 401.04,396.19 399.95,398.02"/>
    </edge>
    <edge id=":4_18" function="internal">
        <lane id=":4_18_0" index="0" speed="13.89" length="9.23" shape="399.95,398.02 399.22,399.23 396.19,401.04 391.95,401.65"/>
    </edge>
    <edge id=":4_12" function="internal">
        <lane id=":4_12_0" index="0" speed="13.89" length="5.00" shape="391.95,395.05 393.31,394.86 394.27,394.28 394.86,393.31 395.05,391.95"/>
    </edge>
    <edge id=":4_13" function="internal">
        <lane id=":4_13_0" index="0" speed="13.89" length="16.10" shape="391.95,395.05 396.73,395.05 400.00,395.05 403.27,395.05 408.05,395.05"/>
        <lane id=":4_13_1" index="1" speed="13.89" length="16.10" shape="391.95,398.35 396.73,398.35 400.00,398.35 403.27,398.35 408.05,398.35"/>
    </edge>
    <edge id=":4_15" function="internal">
        <lane id=":4_15_0" index="0" speed="13.89" length="6.41" shape="391.95,398.35 396.19,398.96 398.02,400.05"/>
    </edge>
    <edge id=":4_19" function="internal">
        <lane id=":4_19_0" index="0" speed="13.89" length="9.23" shape="398.02,400.05 399.23,400.78 401.04,403.81 401.65,408.05"/>
    </edge>
    <edge id=":5_0" function="internal">
        <lane id=":5_0_0" index="0" speed="13.89" length="5.00" shape="545.05,408.05 544.86,406.69 544.27,405.73 543.31,405.14 541.95,404.95"/>
    </edge>
    <edge id=":5_1" function="internal">
        <lane id=":5_1_0" index="0" speed="13.89" length="16.10" shape="545.05,408.05 545.05,403.27 545.05,400.00 545.05,396.73 545.05,391.95"/>
        <lane id=":5_1_1" index="1" speed="13.89" length="16.10" shape="548.35,408.05 548.35,403.27 548.35,400.00 548.35,396.73 548.35,391.95"/>
    </edge>
    <edge id=":5_3" function="internal">
        <lane id=":5_3_0" index="0" speed="13.89" length="6.41" shape="548.35,408.05 548.96,403.81 550.05,401.98"/>
    </edge>
    <edge id=":5_16" function="internal">
        <lane id=":5_16_0" index="0" speed="13.89" length="9.23" shape="550.05,401.98 550.78,400.77 553.81,398.96 558.05,398.35"/>
    </edge>
    <edge id=":5_4" function="internal">
        <lane id=":5_4_0" index="0" speed="13.89" length="5.00" shape="558.05,404.95 556.69,405.14 555.73,405.72 555.14,406.69 554.95,408.05"/>
    </edge>
    <edge id=":5_5" function="internal">
        <lane id=":5_5_0" index="0" speed="13.89" length="16.10" shape="558.05,404.95 553.27,404.95 550.00,404.95 546.73,404.95 541.95,404.95"/>
        <lane id=":5_5_1" index="1" speed="13.89" length="16.10" shape="558.05,401.65 553.27,401.65 550.00,401.65 546.73,401.65 541.95,401.65"/>
    </edge>
    <edge id=":5_7" function="internal">
        <lane id=":5_7_0" index="0" speed="13.89" length="6.41" shape="558.05,401.65 553.81,401.04 551.98,399.95"/>
    </edge>
    <edge id=":5_17" function="internal">
        <lane id=":5_17_0" index="0" speed="13.89" length="9.23" shape="551.98,399.95 550.77,399.22 548.96,396.19 548.35,391.95"/>
    </edge>
    <edge id=":5_8" function="internal">
        <lane id=":5_8_0" index="0" speed="13.89" length="5.00" shape="554.95,391.95 555.14,393.31 555.73,394.27 556.69,394.86 558.05,395.05"/>
    </edge>
    <edge id=":5_9" function="internal">
        <lane id=":5_9_0" index="0" speed="13.89" length="16.10" shape="554.95,391.95 554.95,396.73 554.95,400.00 554.95,403.27 554.95,408.05"/>
        <lane id=":5_9_1" index="1" speed="13.89" length="16.10" shape="551.65,391.95 551.65,396.73 551.65,400.00 551.65,403.27 551.65,408.05"/>
    </edge>
    <edge id=":5_11" function="internal">
        <lane id=":5_11_0" index="0" speed="13.89" length="6.41" shape="551.65,391.95 551.04,396.19 549.95,398.02"/>
    </edge>
    <edge id=":5_18" function="internal">
        <lane id=":5_18_0" index="0" speed="13.89" length="9.23" shape="549.95,398.02 549.22,399.23 546.19,401.04 541.95,401.65"/>
    </edge>
    <edge id=":5_12" function="internal">
        <lane id=":5_12_0" index="0" speed="13.89" length="5.00" shape="541.95,395.05 543.31,394.86 544.27,394.28 544.86,393.31 545.05,391.95"/>
    </edge>
    <edge id=":5_13" function="internal">
        <lane id=":5_13_0" index="0" speed="13.89" length="16.10" shape="541.95,395.05 546.73,395.05 550.00,395.05 553.27,395.05 558.05,395.05"/>
        <lane id=":5_13_1" index="1" speed="13.89" length="16.10" shape="541.95,398.35 546.73,398.35 550.00,398.35 553.27,398.35 558.05,398.35"/>
    </edge>
    <edge id=":5_15" function="internal">
        <lane id=":5_15_0" index="0" speed="13.89" length="6.41" shape="541.95,398.35 546.19,398.96 548.02,400.05"/>
    </edge>
    <edge id=":5_19" function="internal">
        <lane id=":5_19_0" index="0" speed="13.89" length="9.23" shape="548.02,400.05 549.23,400.78 551.04,403.81 551.65,408.05"/>
    </edge>
    <edge id=":6_0" function="internal">
        <lane id=":6_0_0" index="0" speed="13.89" length="5.00" shape="245.05,258.05 244.86,256.69 244.28,255.73 243.31,255.14 241.95,254.95"/>
    </edge>
    <edge id=":6_1" function="internal">
        <lane id=":6_1_0" index="0" speed="13.89" length="16.10" shape="245.05,258.05 245.05,253.27 245.05,250.00 245.05,246.73 245.05,241.95"/>
        <lane id=":6_1_1" index="1" speed="13.89" length="16.10" shape="248.35,258.05 248.35,253.27 248.35,250.00 248.35,246.73 248.35,241.95"/>
    </edge>
    <edge id=":6_3" function="internal">
        <lane id=":6_3_0" index="0" speed="13.89" length="6.41" shape="248.35,258.05 248.96,253.81 250.05,251.98"/>
    </edge>
    <edge id=":6_16" function="internal">
        <lane id=":6_16_0" index="0" speed="13.89" length="9.23" shape="250.05,251.98 250.77,250.78 253.81,248.96 258.05,248.35"/>
    </edge>
    <edge id=":6_4" function="internal">
        <lane id=":6_4_0" index="0" speed="13.89" length="5.00" shape="258.05,254.95 256.69,255.14 255.73,255.72 255.14,256.69 254.95,258.05"/>
    </edge>
    <edge id=":6_5" function="internal">
        <lane id=":6_5_0" index="0" speed="13.89" length="16.10" shape="258.05,254.95 253.27,254.95 250.00,254.95 246.73,254.95 241.95,254.95"/>
        <lane id=":6_5_1" index="1" speed="13.89" length="16.10" shape="258.05,251.65 253.27,251.65 250.00,251.65 246.73,251.65 241.95,251.65"/>
    </edge>
    <edge id=":6_7" function="internal">
        <lane id=":6_7_0" index="0" speed="13.89" length="6.41" shape="258.05,251.65 253.81,251.04 251.98,249.95"/>
    </edge>
    <edge id=":6_17" function="internal">
        <lane id=":6_17_0" index="0" speed="13.89" length="9.23" shape="251.98,249.95 250.78,249.23 248.96,246.19 248.35,241.95"/>
    </edge>
    <edge id=":6_8" function="internal">
        <lane id=":6_8_0" index="0" speed="13.89" length="5.00" shape="254.95,241.95 255.14,243.31 255.72,244.28 256.69,244.86 258.05,245.05"/>
    </edge>
    <edge id=":6_9" function="internal">
        <lane id=":6_9_0" index="0" speed="13.89" length="16.10" shape="254.95,241.95 254.95,246.73 254.95,250.00 254.95,253.27 254.95,258.05"/>
        <lane id=":6_9_1" index="1" speed="13.89" length="16.10" shape="251.65,241.95 251.65,246.73 251.65,250.00 251.65,253.27 251.65,258.05"/>
    </edge>
    <edge id=":6_11" function="internal">
        <lane id=":6_11_0" index="0" speed="13.89" length="6.41" shape="251.65,241.95 251.04,246.19 249.95,248.02"/>
    </edge>
    <edge id=":6_18" function="internal">
        <lane id=":6_18_0" index="0" speed="13.89" length="9.23" shape="249.95,248.02 249.23,249.22 246.19,251.04 241.95,251.65"/>
    </edge>
    <edge id=":6_12" function="internal">
        <lane id=":6_12_0" index="0" speed="13.89" length="5.00" shape="241.95,245.05 243.31,244.86 244.28,244.28 244.86,243.31 245.05,241.95"/>
    </edge>
    <edge id=":6_13" function="internal">
        <lane id=":6_13_0" index="0" speed="13.89" length="16.10" shape="241.95,245.05 246.73,245.05 250.00,245.05 253.27,245.05 258.05,245.05"/>
        <lane id=":6_13_1" index="1" speed="13.89" length="16.10" shape="241.95,248.35 246.73,248.35 250.00,248.35 253.27,248.35 258.05,248.35"/>
    </edge>
    <edge id=":6_15" function="internal">
        <lane id=":6_15_0" index="0" speed="13.89" length="6.41" shape="241.95,248.35 246.19,248.96 248.02,250.05"/>
    </edge>
    <edge id=":6_19" function="internal">
        <lane id=":6_19_0" index="0" speed="13.89" length="9.23" shape="248.02,250.05 249.22,250.77 251.04,253.81 251.65,258.05"/>
    </edge>
    <edge id=":7_0" function="internal">
        <lane id=":7_0_0" index="0" speed="13.89" length="5.00" shape="395.05,258.05 394.86,256.69 394.28,255.73 393.31,255.14 391.95,254.95"/>
    </edge>
    <edge id=":7_1" function="internal">
        <lane id=":7_1_0" index="0" speed="13.89" length="16.10" shape="395.05,258.05 395.05,253.27 395.05,250.00 395.05,246.73 395.05,241.95"/>
        <lane id=":7_1_1" index="1" speed="13.89" length="16.10" shape="398.35,258.05 398.35,253.27 398.35,250.00 398.35,246.73 398.35,241.95"/>
    </edge>
    <edge id=":7_3" function="internal">
        <lane id=":7_3_0" index="0" speed="13.89" length="6.41" shape="398.35,258.05 398.96,253.81 400.05,251.98"/>
    </edge>
    <edge id=":7_16" function="internal">
        <lane id=":7_16_0" index="0" speed="13.89" length="9.23" shape="400.05,251.98 400.78,250.78 403.81,248.96 408.05,248.35"/>
    </edge>
    <edge id=":7_4" function="internal">
        <lane id=":7_4_0" index="0" speed="13.89" length="5.00" shape="408.05,254.95 406.69,255.14 405.73,255.72 405.14,256.69 404.95,258.05"/>
    </edge>
    <edge id=":7_5" function="internal">
        <lane id=":7_5_0" index="0" speed="13.89" length="16.10" shape="408.05,254.95 403.27,254.95 400.00,254.95 396.73,254.95 391.95,254.95"/>
        <lane id=":7_5_1" index="1" speed="13.89" length="16.10" shape="408.05,251.65 403.27,251.65 400.00,251.65 396.73,251.65 391.95,251.65"/>
    </edge>
    <edge id=":7_7" function="internal">
        <lane id=":7_7_0" index="0" speed="13.89" length="6.41" shape="408.05,251.65 403.81,251.04 401.98,249.95"/>
    </edge>
    <edge id=":7_17" function="internal">
        <lane id=":7_17_0" index="0" speed="13.89" length="9.23" shape="401.98,249.95 400.77,249.23 398.96,246.19 398.35,241.95"/>
    </edge>
    <edge id=":7_8" function="internal">
        <lane id=":7_8_0" index="0" speed="13.89" length="5.00" shape="404.95,241.95 405.14,243.31 405.72,244.28 406.69,244.86 408.05,245.05"/>
    </edge>
    <edge id=":7_9" function="internal">
        <lane id=":7_9_0" index="0" speed="13.89" length="16.10" shape="404.95,241.95 404.95,246.73 404.95,250.00 404.95,253.27 404.95,258.05"/>
        <lane id=":7_9_1" index="1" speed="13.89" length="16.10" shape="401.65,241.95 401.65,246.73 401.65,250.00 401.65,253.27 401.65,258.05"/>
    </edge>
    <edge id=":7_11" function="internal">
        <lane id=":7_11_0" index="0" speed="13.89" length="6.41" shape="401.65,241.95 401.04,246.19 399.95,248.02"/>
    </edge>
    <edge id=":7_18" function="internal">
        <lane id=":7_18_0" index="0" speed="13.89" length="9.23" shape="399.95,248.02 399.22,249.22 396.19,251.04 391.95,251.65"/>
    </edge>
    <edge id=":7_12" function="internal">
        <lane id=":7_12_0" index="0" speed="13.89" length="5.00" shape="391.95,245.05 393.31,244.86 394.27,244.28 394.86,243.31 395.05,241.95"/>
    </edge>
    <edge id=":7_13" function="internal">
        <lane id=":7_13_0" index="0" speed="13.89" length="16.10" shape="391.95,245.05 396.73,245.05 400.00,245.05 403.27,245.05 408.05,245.05"/>
        <lane id=":7_13_1" index="1" speed="13.89" length="16.10" shape="391.95,248.35 396.73,248.35 400.00,248.35 403.27,248.35 408.05,248.35"/>
    </edge>
    <edge id=":7_15" function="internal">
        <lane id=":7_15_0" index="0" speed="13.89" length="6.41" shape="391.95,248.35 396.19,248.96 398.02,250.05"/>
    </edge>
    <edge id=":7_19" function="internal">
        <lane id=":7_19_0" index="0" speed="13.89" length="9.23" shape="398.02,250.05 399.23,250.77 401.04,253.81 401.65,258.05"/>
    </edge>
    <edge id=":8_0" function="internal">