<?xml version="1.0" encoding="UTF-8"?>

<configuration>
    <input>
       <net-file value="3x3Grid2lanes.net.xml"/>
        <route-files value="routes14000.rou.xml"/>
    </input>
	<time>
        <begin value="0"/>
        <end value="260000"/>
    </time>
    <time-to-teleport value="-1"/> <!-- If the value is not positive, teleporting due to grid-lock is disabled.-->
</configuration>
