<?xml version="1.0" encoding="UTF-8"?>

<!-- generated on Mon Dec 18 10:05:26 2017 by SUMO duarouter Version 0.30.0
<?xml version="1.0" encoding="UTF-8"?>

<configuration xmlns:xsi="http://www.w3.org/2001/XMLSchema-instance" xsi:noNamespaceSchemaLocation="http://sumo.dlr.de/xsd/duarouterConfiguration.xsd">

    <input>
        <net-file value="networkFiles/3x3Grid2lanes.net.xml"/>
        <trip-files value="tripse14000.trips.xml"/>
    </input>

    <output>
        <output-file value="routese14000.rou.xml"/>
    </output>

</configuration>
-->

<routes xmlns:xsi="http://www.w3.org/2001/XMLSchema-instance" xsi:noNamespaceSchemaLocation="http://sumo.dlr.de/xsd/routes_file.xsd">
    <vehicle id="0" depart="0.00">
        <route edges="2Ni 1Ei 0Ei 0Wo"/>
    </vehicle>
    <vehicle id="1" depart="2.00">
        <route edges="8Ei 5Si 2Si 1Ei 0Ei 0No"/>
    </vehicle>
    <vehicle id="2" depart="4.00">
        <route edges="8Ei 5Si 2Si 1Ei 1No"/>
    </vehicle>
    <vehicle id="3" depart="6.00">
        <route edges="6Si 3Si 0Si"/>
    </vehicle>
    <vehicle id="4" depart="8.00">
        <route edges="8Ei 5Si 2Si 1Ei 0Ei 0Wo"/>
    </vehicle>
    <vehicle id="5" depart="10.00">
        <route edges="0Ni 1Wi 2Wi 5Ni 8Ni 8Eo"/>
    </vehicle>
    <vehicle id="6" depart="12.00">
        <route edges="8Ei 7Ei 6Ei 6Wo"/>
    </vehicle>
    <vehicle id="7" depart="14.00">
        <route edges="2Ni 5Ni 8Ni 7Ei"/>
    </vehicle>
    <vehicle id="8" depart="16.00">
        <route edges="2Ei 5Ni 8Ni 7Ei 6Ei 3Si"/>
    </vehicle>
    <vehicle id="9" depart="18.00">
        <route edges="6Wi 7Wi 8Wi 5Si"/>
    </vehicle>
    <vehicle id="10" depart="20.00">
        <route edges="6Si 7Wi 8Wi 8Eo"/>
    </vehicle>
    <vehicle id="11" depart="22.00">
        <route edges="7Si 4Si 1Si"/>
    </vehicle>
    <vehicle id="12" depart="24.00">
        <route edges="6Si 7Wi 4Si 1Si"/>
    </vehicle>
    <vehicle id="13" depart="26.00">
        <route edges="5Ei 4Ei 3Ei"/>
    </vehicle>
    <vehicle id="14" depart="28.00">
        <route edges="6Si 7Wi 4Si 1Si 0Ei"/>
    </vehicle>
    <vehicle id="15" depart="30.00">
        <route edges="5Ei 8Ni 7Ei 6Ei 6So"/>
    </vehicle>
    <vehicle id="16" depart="32.00">
        <route edges="6Si 7Wi 8Wi 5Si 2Si 2Eo"/>
    </vehicle>
    <vehicle id="17" depart="34.00">
        <route edges="7Si 4Si 1Si 0Ei 0No"/>
    </vehicle>
    <vehicle id="18" depart="36.00">
        <route edges="2Ei 5Ni 4Ei 3Ei"/>
    </vehicle>
    <vehicle id="19" depart="38.00">
        <route edges="2Ei 5Ni 4Ei 3Ei 3Wo"/>
    </vehicle>
    <vehicle id="20" depart="40.00">
        <route edges="0Ni 1Wi 4Ni 7Ni 6Ei"/>
    </vehicle>
    <vehicle id="21" depart="42.00">
        <route edges="2Ni 5Ni 4Ei 7Ni 8Wi"/>
    </vehicle>
    <vehicle id="22" depart="44.00">
        <route edges="8Ei 5Si 4Ei 3Ei 0Si"/>
    </vehicle>
    <vehicle id="23" depart="46.00">
        <route edges="0Wi 1Wi 4Ni 5Wi"/>
    </vehicle>
    <vehicle id="24" depart="48.00">
        <route edges="8Ei 7Ei 6Ei 6Wo"/>
    </vehicle>
    <vehicle id="25" depart="50.00">
        <route edges="2Ni 5Ni 4Ei 3Ei 6Ni 7Wi"/>
    </vehicle>
    <vehicle id="26" depart="52.00">
        <route edges="6Wi 7Wi 8Wi"/>
    </vehicle>
    <vehicle id="27" depart="54.00">
        <route edges="6Wi 7Wi 8Wi 5Si 2Si"/>
    </vehicle>
    <vehicle id="28" depart="56.00">
        <route edges="7Si 4Si 1Si 0Ei 0No"/>
    </vehicle>
    <vehicle id="29" depart="58.00">
        <route edges="2Ni 5Ni 8Ni 8Eo"/>
    </vehicle>
    <vehicle id="30" depart="60.00">
        <route edges="2Ei 5Ni 8Ni 7Ei 6Ei 3Si"/>
    </vehicle>
    <vehicle id="31" depart="62.00">
        <route edges="8Si 5Si 4Ei 3Ei 0Si"/>
    </vehicle>
    <vehicle id="32" depart="64.00">
        <route edges="1Ni 2Wi 5Ni 5Eo"/>
    </vehicle>
    <vehicle id="33" depart="66.00">
        <route edges="0Wi 1Wi 2Wi"/>
    </vehicle>
    <vehicle id="34" depart="68.00">
        <route edges="7Si 8Wi 5Si 2Si 2No"/>
    </vehicle>
    <vehicle id="35" depart="70.00">
        <route edges="7Si 8Wi 5Si 5Eo"/>
    </vehicle>
    <vehicle id="36" depart="72.00">
        <route edges="0Wi 1Wi 4Ni 7Ni 8Wi 5Si"/>
    </vehicle>
    <vehicle id="37" depart="74.00">
        <route edges="0Ni 3Ni 6Ni 7Wi"/>
    </vehicle>
    <vehicle id="38" depart="76.00">
        <route edges="2Ni 5Ni 8Ni 7Ei 6Ei"/>
    </vehicle>
    <vehicle id="39" depart="78.00">
        <route edges="1Ni 4Ni 7Ni 8Wi"/>
    </vehicle>
    <vehicle id="40" depart="80.00">
        <route edges="1Ni 2Wi 5Ni 5Eo"/>
    </vehicle>
    <vehicle id="41" depart="82.00">
        <route edges="2Ni 5Ni 8Ni"/>
    </vehicle>
    <vehicle id="42" depart="84.00">
        <route edges="0Wi 1Wi 2Wi 2No"/>
    </vehicle>
    <vehicle id="43" depart="86.00">
        <route edges="7Si 4Si 1Si 2Wi"/>
    </vehicle>
    <vehicle id="44" depart="88.00">
        <route edges="8Si 5Si 2Si 1Ei 0Ei 0No"/>
    </vehicle>
    <vehicle id="45" depart="90.00">
        <route edges="2Ni 1Ei 0Ei 0Wo"/>
    </vehicle>
    <vehicle id="46" depart="92.00">
        <route edges="2Ei 5Ni 4Ei 3Ei 3Wo"/>
    </vehicle>
    <vehicle id="47" depart="94.00">
        <route edges="8Ei 5Si 2Si 2No"/>
    </vehicle>
    <vehicle id="48" depart="96.00">
        <route edges="8Si 5Si 4Ei 1Si"/>
    </vehicle>
    <vehicle id="49" depart="98.00">
        <route edges="0Ni 1Wi 4Ni 7Ni 8Wi"/>
    </vehicle>
    <vehicle id="50" depart="100.00">
        <route edges="7Si 8Wi 5Si 2Si"/>
    </vehicle>
    <vehicle id="51" depart="102.00">
        <route edges="2Ei 1Ei 0Ei 3Ni"/>
    </vehicle>
    <vehicle id="52" depart="104.00">
        <route edges="2Ni 5Ni 4Ei 3Ei 3Wo"/>
    </vehicle>
    <vehicle id="53" depart="106.00">
        <route edges="5Ei 8Ni 7Ei 6Ei 6Wo"/>
    </vehicle>
    <vehicle id="54" depart="108.00">
        <route edges="3Wi 4Wi 5Wi 2Si"/>
    </vehicle>
    <vehicle id="55" depart="110.00">
        <route edges="1Ni 2Wi 5Ni 8Ni"/>
    </vehicle>
    <vehicle id="56" depart="112.00">
        <route edges="0Ni 1Wi 2Wi 5Ni 8Ni"/>
    </vehicle>
    <vehicle id="57" depart="114.00">
        <route edges="2Ni 5Ni 8Ni 7Ei"/>
    </vehicle>
    <vehicle id="58" depart="116.00">
        <route edges="0Wi 1Wi 2Wi 5Ni 5Eo"/>
    </vehicle>
    <vehicle id="59" depart="118.00">
        <route edges="7Si 4Si 3Ei 3Wo"/>
    </vehicle>
    <vehicle id="60" depart="120.00">
        <route edges="8Ei 5Si 4Ei 3Ei 0Si"/>
    </vehicle>
    <vehicle id="61" depart="122.00">
        <route edges="8Si 5Si 2Si 1Ei 0Ei"/>
    </vehicle>
    <vehicle id="62" depart="124.00">
        <route edges="0Ni 1Wi 2Wi 5Ni 8Ni"/>
    </vehicle>
    <vehicle id="63" depart="126.00">
        <route edges="3Wi 4Wi 5Wi 2Si"/>
    </vehicle>
    <vehicle id="64" depart="128.00">
        <route edges="5Ei 8Ni 7Ei 6Ei 3Si"/>
    </vehicle>
    <vehicle id="65" depart="130.00">
        <route edges="6Wi 7Wi 8Wi 8Eo"/>
    </vehicle>
    <vehicle id="66" depart="132.00">
        <route edges="8Si 5Si 2Si 1Ei 0Ei 0Wo"/>
    </vehicle>
    <vehicle id="67" depart="134.00">
        <route edges="6Si 7Wi 4Si 1Si 2Wi"/>
    </vehicle>
    <vehicle id="68" depart="136.00">
        <route edges="0Ni 1Wi 4Ni 7Ni 6Ei"/>
    </vehicle>
    <vehicle id="69" depart="138.00">
        <route edges="8Si 5Si 4Ei 1Si"/>
    </vehicle>
    <vehicle id="70" depart="140.00">
        <route edges="8Ei 5Si 2Si 1Ei 0Ei"/>
    </vehicle>
    <vehicle id="71" depart="142.00">
        <route edges="7Si 4Si 1Si 0Ei 0Wo"/>
    </vehicle>
    <vehicle id="72" depart="144.00">
        <route edges="3Wi 4Wi 5Wi 8Ni"/>
    </vehicle>
    <vehicle id="73" depart="146.00">
        <route edges="6Si 3Si 0Si"/>
    </vehicle>
    <vehicle id="74" depart="148.00">
        <route edges="2Ni 5Ni 8Ni 8So"/>
    </vehicle>
    <vehicle id="75" depart="150.00">
        <route edges="1Ni 4Ni 3Ei 3Wo"/>
    </vehicle>
    <vehicle id="76" depart="152.00">
        <route edges="2Ni 5Ni 8Ni 7Ei"/>
    </vehicle>
    <vehicle id="77" depart="154.00">
        <route edges="7Si 4Si 3Ei 0Si"/>
    </vehicle>
    <vehicle id="78" depart="156.00">
        <route edges="0Ni 1Wi 2Wi 5Ni 8Ni"/>
    </vehicle>
    <vehicle id="79" depart="158.00">
        <route edges="2Ei 5Ni 4Ei 3Ei 3Wo"/>
    </vehicle>
    <vehicle id="80" depart="160.00">
        <route edges="2Ni 5Ni 8Ni 7Ei 6Ei"/>
    </vehicle>
    <vehicle id="81" depart="162.00">
        <route edges="0Ni 3Ni 6Ni"/>
    </vehicle>
    <vehicle id="82" depart="164.00">
        <route edges="0Wi 1Wi 2Wi 5Ni"/>
    </vehicle>
    <vehicle id="83" depart="166.00">
        <route edges="6Si 3Si 0Si"/>
    </vehicle>
    <vehicle id="84" depart="168.00">
        <route edges="7Si 8Wi 5Si 2Si"/>
    </vehicle>
    <vehicle id="85" depart="170.00">
        <route edges="8Ei 7Ei 6Ei"/>
    </vehicle>
    <vehicle id="86" depart="172.00">
        <route edges="0Wi 1Wi 4Ni 7Ni 8Wi"/>
    </vehicle>
    <vehicle id="87" depart="174.00">
        <route edges="6Si 7Wi 8Wi 5Si 2Si 2No"/>
    </vehicle>
    <vehicle id="88" depart="176.00">
        <route edges="8Ei 5Si 4Ei 3Ei 0Si"/>
    </vehicle>
    <vehicle id="89" depart="178.00">
        <route edges="2Ni 5Ni 8Ni 7Ei 6Ei"/>
    </vehicle>
    <vehicle id="90" depart="180.00">
        <route edges="7Si 8Wi 5Si 2Si 1Ei"/>
    </vehicle>
    <vehicle id="91" depart="182.00">
        <route edges="0Wi 1Wi 4Ni 7Ni 7So"/>
    </vehicle>
    <vehicle id="92" depart="184.00">
        <route edges="1Ni 4Ni 3Ei 6Ni 7Wi"/>
    </vehicle>
    <vehicle id="93" depart="186.00">
        <route edges="7Si 4Si 3Ei 0Si"/>
    </vehicle>
    <vehicle id="94" depart="188.00">
        <route edges="0Ni 1Wi 2Wi 5Ni 8Ni 7Ei"/>
    </vehicle>
    <vehicle id="95" depart="190.00">
        <route edges="0Wi 1Wi 4Ni 5Wi 2Si"/>
    </vehicle>
    <vehicle id="96" depart="192.00">
        <route edges="8Si 5Si 4Ei 3Ei 3Wo"/>
    </vehicle>
    <vehicle id="97" depart="194.00">
        <route edges="0Wi 1Wi 4Ni 5Wi"/>
    </vehicle>
    <vehicle id="98" depart="196.00">
        <route edges="0Ni 1Wi 2Wi 5Ni 5Eo"/>
    </vehicle>
    <vehicle id="99" depart="198.00">
        <route edges="1Ni 2Wi 5Ni 5Eo"/>
    </vehicle>
    <vehicle id="100" depart="200.00">
        <route edges="7Si 4Si 3Ei 3Wo"/>
    </vehicle>
    <vehicle id="101" depart="202.00">
        <route edges="5Ei 2Si 1Ei 0Ei 3Ni"/>
    </vehicle>
    <vehicle id="102" depart="204.00">
        <route edges="0Ni 1Wi 4Ni 7Ni 6Ei"/>
    </vehicle>
    <vehicle id="103" depart="206.00">
        <route edges="0Wi 1Wi 4Ni 5Wi"/>
    </vehicle>
    <vehicle id="104" depart="208.00">
        <route edges="6Si 3Si 0Si 0Wo"/>
    </vehicle>
    <vehicle id="105" depart="210.00">
        <route edges="7Si 8Wi 5Si 2Si 1Ei"/>
    </vehicle>
    <vehicle id="106" depart="212.00">
        <route edges="6Wi 7Wi 4Si 1Si 2Wi 5Ni"/>
    </vehicle>
    <vehicle id="107" depart="214.00">
        <route edges="2Ni 5Ni 4Ei 3Ei 3Wo"/>
    </vehicle>
    <vehicle id="108" depart="216.00">
        <route edges="2Ei 5Ni 8Ni 7Ei 6Ei 3Si"/>
    </vehicle>
    <vehicle id="109" depart="218.00">
        <route edges="3Wi 4Wi 5Wi"/>
    </vehicle>
    <vehicle id="110" depart="220.00">
        <route edges="6Si 7Wi 8Wi 5Si 2Si"/>
    </vehicle>
    <vehicle id="111" depart="222.00">
        <route edges="0Wi 1Wi 4Ni 5Wi"/>
    </vehicle>
    <vehicle id="112" depart="224.00">
        <route edges="0Ni 1Wi 2Wi 5Ni 5Eo"/>
    </vehicle>
    <vehicle id="113" depart="226.00">
        <route edges="5Ei 4Ei 3Ei"/>
    </vehicle>
    <vehicle id="114" depart="228.00">
        <route edges="2Ni 5Ni 8Ni 8Eo"/>
    </vehicle>
    <vehicle id="115" depart="230.00">
        <route edges="1Ni 4Ni 7Ni 6Ei 6So"/>
    </vehicle>
    <vehicle id="116" depart="232.00">
        <route edges="8Ei 7Ei 6Ei"/>
    </vehicle>
    <vehicle id="117" depart="234.00">
        <route edges="6Wi 7Wi 4Si 1Si 1No"/>
    </vehicle>
    <vehicle id="118" depart="236.00">
        <route edges="8Si 5Si 2Si 1Ei 1No"/>
    </vehicle>
    <vehicle id="119" depart="238.00">
        <route edges="7Si 4Si 1Si"/>
    </vehicle>
    <vehicle id="120" depart="240.00">
        <route edges="1Ni 2Wi 5Ni 5Eo"/>
    </vehicle>
    <vehicle id="121" depart="242.00">
        <route edges="1Ni 2Wi 5Ni 8Ni 8So"/>
    </vehicle>
    <vehicle id="122" depart="244.00">
        <route edges="1Ni 4Ni 7Ni 8Wi"/>
    </vehicle>
    <vehicle id="123" depart="246.00">
        <route edges="5Ei 2Si 1Ei 0Ei"/>
    </vehicle>
    <vehicle id="124" depart="248.00">
        <route edges="6Wi 7Wi 8Wi 5Si"/>
    </vehicle>
    <vehicle id="125" depart="250.00">
        <route edges="1Ni 4Ni 3Ei 3Wo"/>
    </vehicle>
    <vehicle id="126" depart="252.00">
        <route edges="8Ei 5Si 4Ei 3Ei 6Ni"/>
    </vehicle>
    <vehicle id="127" depart="254.00">
        <route edges="8Si 5Si 4Ei 3Ei 3Wo"/>
    </vehicle>
    <vehicle id="128" depart="256.00">
        <route edges="5Ei 8Ni 7Ei 6Ei"/>
    </vehicle>
    <vehicle id="129" depart="258.00">
        <route edges="5Ei 8Ni 7Ei 6Ei 6So"/>
    </vehicle>
    <vehicle id="130" depart="260.00">
        <route edges="6Si 3Si 0Si 0No"/>
    </vehicle>
    <vehicle id="131" depart="262.00">
        <route edges="3Wi 4Wi 7Ni 7So"/>
    </vehicle>
    <vehicle id="132" depart="264.00">
        <route edges="0Wi 1Wi 2Wi 5Ni 8Ni 8So"/>
    </vehicle>
    <vehicle id="133" depart="266.00">
        <route edges="0Ni 1Wi 2Wi 5Ni 5Eo"/>
    </vehicle>
    <vehicle id="134" depart="268.00">
        <route edges="8Si 5Si 2Si 1Ei 0Ei"/>
    </vehicle>
    <vehicle id="135" depart="270.00">
        <route edges="2Ei 5Ni 8Ni 7Ei 6Ei 3Si"/>
    </vehicle>
    <vehicle id="136" depart="272.00">
        <route edges="2Ni 5Ni 8Ni"/>
    </vehicle>
    <vehicle id="137" depart="274.00">
        <route edges="0Wi 1Wi 2Wi 2No"/>
    </vehicle>
    <vehicle id="138" depart="276.00">
        <route edges="1Ni 4Ni 3Ei 6Ni 7Wi"/>
    </vehicle>
    <vehicle id="139" depart="278.00">
        <route edges="3Wi 4Wi 5Wi"/>
    </vehicle>
    <vehicle id="140" depart="280.00">
        <route edges="2Ni 5Ni 4Ei 7Ni"/>
    </vehicle>
    <vehicle id="141" depart="282.00">
        <route edges="5Ei 2Si 1Ei 0Ei 0No"/>
    </vehicle>
    <vehicle id="142" depart="284.00">
        <route edges="6Wi 7Wi 4Si 1Si 1No"/>
    </vehicle>
    <vehicle id="143" depart="286.00">
        <route edges="2Ei 5Ni 8Ni 7Ei 6Ei 6Wo"/>
    </vehicle>
    <vehicle id="144" depart="288.00">
        <route edges="3Wi 4Wi 5Wi 8Ni 8Eo"/>
    </vehicle>
    <vehicle id="145" depart="290.00">
        <route edges="3Wi 4Wi 5Wi 8Ni 8Eo"/>
    </vehicle>
    <vehicle id="146" depart="292.00">
        <route edges="0Ni 3Ni 6Ni"/>
    </vehicle>
    <vehicle id="147" depart="294.00">
        <route edges="7Si 4Si 3Ei 3Wo"/>
    </vehicle>
    <vehicle id="148" depart="296.00">
        <route edges="7Si 4Si 1Si"/>
    </vehicle>
    <vehicle id="149" depart="298.00">
        <route edges="6Si 7Wi 8Wi 5Si 2Si 1Ei"/>
    </vehicle>
    <vehicle id="150" depart="300.00">
        <route edges="1Ni 4Ni 3Ei 6Ni"/>
    </vehicle>
    <vehicle id="151" depart="302.00">
        <route edges="0Wi 1Wi 2Wi 5Ni 8Ni 8So"/>
    </vehicle>
    <vehicle id="152" depart="304.00">
        <route edges="0Wi 1Wi 2Wi 2No"/>
    </vehicle>
    <vehicle id="153" depart="306.00">
        <route edges="1Ni 4Ni 7Ni"/>
    </vehicle>
    <vehicle id="154" depart="308.00">
        <route edges="0Ni 3Ni 6Ni 7Wi"/>
    </vehicle>
    <vehicle id="155" depart="310.00">
        <route edges="8Si 7Ei 6Ei 6Wo"/>
    </vehicle>
    <vehicle id="156" depart="312.00">
        <route edges="6Si 7Wi 4Si 1Si 0Ei"/>
    </vehicle>
    <vehicle id="157" depart="314.00">
        <route edges="0Wi 1Wi 2Wi"/>
    </vehicle>
    <vehicle id="158" depart="316.00">
        <route edges="6Si 7Wi 4Si 1Si 1No"/>
    </vehicle>
    <vehicle id="159" depart="318.00">
        <route edges="0Ni 1Wi 2Wi 2Eo"/>
    </vehicle>
    <vehicle id="160" depart="320.00">
        <route edges="2Ni 1Ei 0Ei 0Wo"/>
    </vehicle>
    <vehicle id="161" depart="322.00">
        <route edges="8Ei 5Si 4Ei 3Ei 3Wo"/>
    </vehicle>
    <vehicle id="162" depart="324.00">
        <route edges="0Wi 1Wi 2Wi 5Ni 5Eo"/>
    </vehicle>
    <vehicle id="163" depart="326.00">
        <route edges="1Ni 4Ni 7Ni 6Ei 6Wo"/>
    </vehicle>
    <vehicle id="164" depart="328.00">
        <route edges="5Ei 8Ni 7Ei 6Ei 6So"/>
    </vehicle>
    <vehicle id="165" depart="330.00">
        <route edges="2Ei 5Ni 4Ei 3Ei 3Wo"/>
    </vehicle>
    <vehicle id="166" depart="332.00">
        <route edges="6Si 7Wi 8Wi 8Eo"/>
    </vehicle>
    <vehicle id="167" depart="334.00">
        <route edges="0Wi 1Wi 2Wi 2Eo"/>
    </vehicle>
    <vehicle id="168" depart="336.00">
        <route edges="1Ni 2Wi 5Ni 8Ni 8Eo"/>
    </vehicle>
    <vehicle id="169" depart="338.00">
        <route edges="0Wi 1Wi 4Ni 5Wi 2Si"/>
    </vehicle>
    <vehicle id="170" depart="340.00">
        <route edges="6Wi 7Wi 8Wi 5Si"/>
    </vehicle>
    <vehicle id="171" depart="342.00">
        <route edges="6Wi 7Wi 8Wi 5Si 2Si 2Eo"/>
    </vehicle>
    <vehicle id="172" depart="344.00">
        <route edges="6Si 7Wi 8Wi 5Si 2Si 2Eo"/>
    </vehicle>
    <vehicle id="173" depart="346.00">
        <route edges="8Si 5Si 4Ei 3Ei 0Si"/>
    </vehicle>
    <vehicle id="174" depart="348.00">
        <route edges="2Ei 5Ni 8Ni 8So"/>
    </vehicle>
    <vehicle id="175" depart="350.00">
        <route edges="0Ni 3Ni 6Ni"/>
    </vehicle>
    <vehicle id="176" depart="352.00">
        <route edges="8Si 5Si 4Ei 3Ei 0Si"/>
    </vehicle>
    <vehicle id="177" depart="354.00">
        <route edges="3Wi 4Wi 1Si 2Wi"/>
    </vehicle>
    <vehicle id="178" depart="356.00">
        <route edges="3Wi 4Wi 5Wi 2Si"/>
    </vehicle>
    <vehicle id="179" depart="358.00">
        <route edges="2Ni 5Ni 8Ni 7Ei 7So"/>
    </vehicle>
    <vehicle id="180" depart="360.00">
        <route edges="8Si 5Si 2Si 2No"/>
    </vehicle>
    <vehicle id="181" depart="362.00">
        <route edges="5Ei 2Si 1Ei 0Ei 0Wo"/>
    </vehicle>
    <vehicle id="182" depart="364.00">
        <route edges="0Ni 3Ni 6Ni"/>
    </vehicle>
    <vehicle id="183" depart="366.00">
        <route edges="1Ni 4Ni 7Ni 6Ei"/>
    </vehicle>
    <vehicle id="184" depart="368.00">
        <route edges="5Ei 8Ni 7Ei 6Ei 6So"/>
    </vehicle>
    <vehicle id="185" depart="370.00">
        <route edges="2Ni 5Ni 4Ei 3Ei 6Ni"/>
    </vehicle>
    <vehicle id="186" depart="372.00">
        <route edges="0Wi 1Wi 2Wi 5Ni"/>
    </vehicle>
    <vehicle id="187" depart="374.00">
        <route edges="2Ei 5Ni 4Ei 3Ei 6Ni"/>
    </vehicle>
    <vehicle id="188" depart="376.00">
        <route edges="8Si 5Si 2Si 1Ei 0Ei 0No"/>
    </vehicle>
    <vehicle id="189" depart="378.00">
        <route edges="6Wi 7Wi 4Si 5Wi"/>
    </vehicle>
    <vehicle id="190" depart="380.00">
        <route edges="2Ni 5Ni 4Ei 3Ei 3Wo"/>
    </vehicle>
    <vehicle id="191" depart="382.00">
        <route edges="1Ni 4Ni 7Ni 6Ei 6Wo"/>
    </vehicle>
    <vehicle id="192" depart="384.00">
        <route edges="8Si 5Si 2Si"/>
    </vehicle>
    <vehicle id="193" depart="386.00">
        <route edges="8Si 5Si 2Si 2No"/>
    </vehicle>
    <vehicle id="194" depart="388.00">
        <route edges="3Wi 4Wi 5Wi 8Ni 8Eo"/>
    </vehicle>
    <vehicle id="195" depart="390.00">
        <route edges="0Ni 1Wi 2Wi 5Ni 8Ni 8So"/>
    </vehicle>
    <vehicle id="196" depart="392.00">
        <route edges="3Wi 4Wi 7Ni 8Wi 5Si"/>
    </vehicle>
    <vehicle id="197" depart="394.00">
        <route edges="2Ei 5Ni 8Ni 7Ei 6Ei 3Si"/>
    </vehicle>
    <vehicle id="198" depart="396.00">
        <route edges="6Si 3Si 0Si 1Wi"/>
    </vehicle>
    <vehicle id="199" depart="398.00">
        <route edges="0Ni 1Wi 4Ni 7Ni 6Ei"/>
    </vehicle>
    <vehicle id="200" depart="400.00">
        <route edges="2Ei 5Ni 8Ni 7Ei 7So"/>
    </vehicle>
    <vehicle id="201" depart="402.00">
        <route edges="0Wi 1Wi 2Wi 5Ni 8Ni 8So"/>
    </vehicle>
    <vehicle id="202" depart="404.00">
        <route edges="0Ni 3Ni 6Ni 6Wo"/>
    </vehicle>
    <vehicle id="203" depart="406.00">
        <route edges="2Ni 5Ni 8Ni 7Ei 6Ei 6Wo"/>
    </vehicle>
    <vehicle id="204" depart="408.00">
        <route edges="2Ni 5Ni 8Ni 7Ei 6Ei 6So"/>
    </vehicle>
    <vehicle id="205" depart="410.00">
        <route edges="6Wi 7Wi 4Si 5Wi"/>
    </vehicle>
    <vehicle id="206" depart="412.00">
        <route edges="2Ei 5Ni 8Ni 7Ei 6Ei 3Si"/>
    </vehicle>
    <vehicle id="207" depart="414.00">
        <route edges="3Wi 4Wi 7Ni 8Wi 5Si"/>
    </vehicle>
    <vehicle id="208" depart="416.00">
        <route edges="7Si 8Wi 5Si 2Si 2No"/>
    </vehicle>
    <vehicle id="209" depart="418.00">
        <route edges="6Si 7Wi 4Si 1Si 1No"/>
    </vehicle>
    <vehicle id="210" depart="420.00">
        <route edges="0Wi 1Wi 4Ni 5Wi"/>
    </vehicle>
    <vehicle id="211" depart="422.00">
        <route edges="6Wi 7Wi 4Si 5Wi"/>
    </vehicle>
    <vehicle id="212" depart="424.00">
        <route edges="5Ei 2Si 1Ei 0Ei 3Ni"/>
    </vehicle>
    <vehicle id="213" depart="426.00">
        <route edges="6Wi 7Wi 4Si 5Wi 8Ni"/>
    </vehicle>
    <vehicle id="214" depart="428.00">
        <route edges="0Ni 1Wi 2Wi 5Ni 8Ni 8So"/>
    </vehicle>
    <vehicle id="215" depart="430.00">
        <route edges="6Wi 7Wi 8Wi 5Si 2Si 2Eo"/>
    </vehicle>
    <vehicle id="216" depart="432.00">
        <route edges="8Ei 5Si 4Ei 3Ei"/>
    </vehicle>
    <vehicle id="217" depart="434.00">
        <route edges="3Wi 4Wi 1Si 2Wi"/>
    </vehicle>
    <vehicle id="218" depart="436.00">
        <route edges="2Ni 5Ni 8Ni 7Ei 6Ei 6So"/>
    </vehicle>
    <vehicle id="219" depart="438.00">
        <route edges="5Ei 2Si 1Ei 0Ei 0No"/>
    </vehicle>
    <vehicle id="220" depart="440.00">
        <route edges="0Ni 1Wi 2Wi 5Ni 8Ni"/>
    </vehicle>
    <vehicle id="221" depart="442.00">
        <route edges="0Wi 1Wi 2Wi 5Ni 8Ni 8So"/>
    </vehicle>
    <vehicle id="222" depart="444.00">
        <route edges="6Wi 7Wi 8Wi 5Si 5Eo"/>
    </vehicle>
    <vehicle id="223" depart="446.00">
        <route edges="6Wi 7Wi 8Wi 5Si 2Si 2Eo"/>
    </vehicle>
    <vehicle id="224" depart="448.00">
        <route edges="0Wi 1Wi 2Wi 2Eo"/>
    </vehicle>
    <vehicle id="225" depart="450.00">
        <route edges="0Wi 1Wi 2Wi 2Eo"/>
    </vehicle>
    <vehicle id="226" depart="452.00">
        <route edges="2Ni 5Ni 4Ei 3Ei 6Ni 7Wi"/>
    </vehicle>
    <vehicle id="227" depart="454.00">
        <route edges="1Ni 2Wi 5Ni 8Ni"/>
    </vehicle>
    <vehicle id="228" depart="456.00">
        <route edges="6Wi 7Wi 8Wi 5Si 2Si"/>
    </vehicle>
    <vehicle id="229" depart="458.00">
        <route edges="1Ni 4Ni 7Ni 7So"/>
    </vehicle>
    <vehicle id="230" depart="460.00">
        <route edges="1Ni 4Ni 3Ei 3Wo"/>
    </vehicle>
    <vehicle id="231" depart="462.00">
        <route edges="0Ni 1Wi 2Wi 5Ni 8Ni 7Ei"/>
    </vehicle>
    <vehicle id="232" depart="464.00">
        <route edges="8Ei 7Ei 6Ei 3Si"/>
    </vehicle>
    <vehicle id="233" depart="466.00">
        <route edges="5Ei 4Ei 3Ei 6Ni"/>
    </vehicle>
    <vehicle id="234" depart="468.00">
        <route edges="0Wi 1Wi 2Wi 5Ni 8Ni 8So"/>
    </vehicle>
    <vehicle id="235" depart="470.00">
        <route edges="6Si 7Wi 8Wi 5Si 5Eo"/>
    </vehicle>
    <vehicle id="236" depart="472.00">
        <route edges="0Ni 1Wi 2Wi 5Ni 8Ni"/>
    </vehicle>
    <vehicle id="237" depart="474.00">
        <route edges="0Wi 1Wi 4Ni 7Ni 8Wi"/>
    </vehicle>
    <vehicle id="238" depart="476.00">
        <route edges="6Si 7Wi 4Si 1Si 2Wi"/>
    </vehicle>
    <vehicle id="239" depart="478.00">
        <route edges="6Wi 7Wi 8Wi 8Eo"/>
    </vehicle>
    <vehicle id="240" depart="480.00">
        <route edges="2Ei 1Ei 0Ei 0Wo"/>
    </vehicle>
    <vehicle id="241" depart="482.00">
        <route edges="2Ni 5Ni 4Ei 3Ei 6Ni"/>
    </vehicle>
    <vehicle id="242" depart="484.00">
        <route edges="8Ei 5Si 4Ei 3Ei 6Ni"/>
    </vehicle>
    <vehicle id="243" depart="486.00">
        <route edges="0Wi 1Wi 4Ni 7Ni 8Wi 5Si"/>
    </vehicle>
    <vehicle id="244" depart="488.00">
        <route edges="6Wi 7Wi 8Wi 5Si 2Si"/>
    </vehicle>
    <vehicle id="245" depart="490.00">
        <route edges="1Ni 4Ni 7Ni 8Wi"/>
    </vehicle>
    <vehicle id="246" depart="492.00">
        <route edges="5Ei 2Si 1Ei 0Ei 0No"/>
    </vehicle>
    <vehicle id="247" depart="494.00">
        <route edges="5Ei 2Si 1Ei 0Ei 3Ni"/>
    </vehicle>
    <vehicle id="248" depart="496.00">
        <route edges="2Ei 5Ni 8Ni 7Ei 7So"/>
    </vehicle>
    <vehicle id="249" depart="498.00">
        <route edges="2Ei 5Ni 8Ni 7Ei 6Ei"/>
    </vehicle>
    <vehicle id="250" depart="500.00">
        <route edges="1Ni 4Ni 7Ni 6Ei"/>
    </vehicle>
    <vehicle id="251" depart="502.00">
        <route edges="5Ei 8Ni 7Ei 6Ei"/>
    </vehicle>
    <vehicle id="252" depart="504.00">
        <route edges="1Ni 2Wi 5Ni 8Ni 8So"/>
    </vehicle>
    <vehicle id="253" depart="506.00">
        <route edges="0Ni 3Ni 6Ni"/>
    </vehicle>
    <vehicle id="254" depart="508.00">
        <route edges="8Si 5Si 4Ei 3Ei 0Si"/>
    </vehicle>
    <vehicle id="255" depart="510.00">
        <route edges="8Ei 5Si 2Si 1Ei 0Ei 3Ni"/>
    </vehicle>
    <vehicle id="256" depart="512.00">
        <route edges="8Ei 5Si 2Si 1Ei 1No"/>
    </vehicle>
    <vehicle id="257" depart="514.00">
        <route edges="7Si 4Si 1Si 1No"/>
    </vehicle>
    <vehicle id="258" depart="516.00">
        <route edges="0Wi 1Wi 2Wi 5Ni 8Ni 8So"/>
    </vehicle>
    <vehicle id="259" depart="518.00">
        <route edges="1Ni 4Ni 3Ei 3Wo"/>
    </vehicle>
    <vehicle id="260" depart="520.00">
        <route edges="6Wi 7Wi 8Wi"/>
    </vehicle>
    <vehicle id="261" depart="522.00">
        <route edges="6Wi 7Wi 8Wi 5Si 5Eo"/>
    </vehicle>
    <vehicle id="262" depart="524.00">
        <route edges="0Wi 1Wi 2Wi 5Ni"/>
    </vehicle>
    <vehicle id="263" depart="526.00">
        <route edges="3Wi 4Wi 5Wi 2Si"/>
    </vehicle>
    <vehicle id="264" depart="528.00">
        <route edges="8Ei 5Si 2Si 1Ei 0Ei 3Ni"/>
    </vehicle>
    <vehicle id="265" depart="530.00">
        <route edges="3Wi 4Wi 5Wi 8Ni 8So"/>
    </vehicle>
    <vehicle id="266" depart="532.00">
        <route edges="2Ni 5Ni 8Ni 7Ei 6Ei 6Wo"/>
    </vehicle>
    <vehicle id="267" depart="534.00">
        <route edges="2Ni 5Ni 8Ni 7Ei 6Ei 6Wo"/>
    </vehicle>
    <vehicle id="268" depart="536.00">
        <route edges="0Wi 1Wi 2Wi"/>
    </vehicle>
    <vehicle id="269" depart="538.00">
        <route edges="0Ni 1Wi 4Ni 7Ni 6Ei"/>
    </vehicle>
    <vehicle id="270" depart="540.00">
        <route edges="2Ni 5Ni 4Ei 7Ni"/>
    </vehicle>
    <vehicle id="271" depart="542.00">
        <route edges="2Ni 5Ni 8Ni 8So"/>
    </vehicle>
    <vehicle id="272" depart="544.00">
        <route edges="2Ni 5Ni 8Ni 8Eo"/>
    </vehicle>
    <vehicle id="273" depart="546.00">
        <route edges="0Ni 1Wi 4Ni 7Ni 7So"/>
    </vehicle>
    <vehicle id="274" depart="548.00">
        <route edges="8Si 5Si 4Ei 3Ei 0Si 1Wi"/>
    </vehicle>
    <vehicle id="275" depart="550.00">
        <route edges="0Ni 3Ni 6Ni 6So"/>
    </vehicle>
    <vehicle id="276" depart="552.00">
        <route edges="5Ei 2Si 1Ei 0Ei 0No"/>
    </vehicle>
    <vehicle id="277" depart="554.00">
        <route edges="2Ei 5Ni 4Ei 3Ei"/>
    </vehicle>
    <vehicle id="278" depart="556.00">
        <route edges="1Ni 2Wi 5Ni 5Eo"/>
    </vehicle>
    <vehicle id="279" depart="558.00">
        <route edges="8Si 5Si 2Si 2Eo"/>
    </vehicle>
    <vehicle id="280" depart="560.00">
        <route edges="6Si 3Si 0Si 0No"/>
    </vehicle>
    <vehicle id="281" depart="562.00">
        <route edges="8Ei 5Si 2Si 1Ei 0Ei 3Ni"/>
    </vehicle>
    <vehicle id="282" depart="564.00">
        <route edges="5Ei 2Si 1Ei 0Ei 3Ni"/>
    </vehicle>
    <vehicle id="283" depart="566.00">
        <route edges="8Si 5Si 2Si 2No"/>
    </vehicle>
    <vehicle id="284" depart="568.00">
        <route edges="5Ei 4Ei 3Ei"/>
    </vehicle>
    <vehicle id="285" depart="570.00">
        <route edges="6Wi 7Wi 4Si 5Wi"/>
    </vehicle>
    <vehicle id="286" depart="572.00">
        <route edges="7Si 8Wi 5Si 5Eo"/>
    </vehicle>
    <vehicle id="287" depart="574.00">
        <route edges="3Wi 4Wi 7Ni 7So"/>
    </vehicle>
    <vehicle id="288" depart="576.00">
        <route edges="2Ni 5Ni 4Ei 3Ei 3Wo"/>
    </vehicle>
    <vehicle id="289" depart="578.00">
        <route edges="8Si 5Si 4Ei 1Si"/>
    </vehicle>
    <vehicle id="290" depart="580.00">
        <route edges="0Ni 1Wi 2Wi 5Ni 8Ni 8So"/>
    </vehicle>
    <vehicle id="291" depart="582.00">
        <route edges="6Wi 7Wi 8Wi 8Eo"/>
    </vehicle>
    <vehicle id="292" depart="584.00">
        <route edges="3Wi 4Wi 5Wi 2Si 2Eo"/>
    </vehicle>
    <vehicle id="293" depart="586.00">
        <route edges="6Si 3Si 0Si"/>
    </vehicle>
    <vehicle id="294" depart="588.00">
        <route edges="0Ni 3Ni 6Ni 6So"/>
    </vehicle>
    <vehicle id="295" depart="590.00">
        <route edges="8Ei 5Si 4Ei 3Ei 6Ni"/>
    </vehicle>
    <vehicle id="296" depart="592.00">
        <route edges="0Ni 1Wi 2Wi 2Eo"/>
    </vehicle>
    <vehicle id="297" depart="594.00">
        <route edges="6Si 7Wi 4Si 1Si 0Ei"/>
    </vehicle>
    <vehicle id="298" depart="596.00">
        <route edges="2Ni 5Ni 8Ni 7Ei 7So"/>
    </vehicle>
    <vehicle id="299" depart="598.00">
        <route edges="8Ei 5Si 4Ei 3Ei 0Si"/>
    </vehicle>
    <vehicle id="300" depart="600.00">
        <route edges="2Ei 1Ei 0Ei 0No"/>
    </vehicle>
    <vehicle id="301" depart="602.00">
        <route edges="3Wi 4Wi 1Si 2Wi"/>
    </vehicle>
    <vehicle id="302" depart="604.00">