<?xml version="1.0" encoding="UTF-8"?>

<!-- generated on Tue Aug 26 15:18:55 2014 by SUMO netconvert Version 0.18.0
<?xml version="1.0" encoding="UTF-8"?>

<configuration xmlns:xsi="http://www.w3.org/2001/XMLSchema-instance" xsi:noNamespaceSchemaLocation="http://sumo.sf.net/xsd/netconvertConfiguration.xsd">

    <input>
        <node-files value="simple.nod.xml"/>
        <edge-files value="simple.edg.xml"/>
        <type-files value="simple.typ.xml"/>
    </input>

    <output>
        <output-file value="simple.net.xml"/>
    </output>

    <processing>
        <no-turnarounds value="true"/>
    </processing>

</configuration>
-->

<net version="0.13" xmlns:xsi="http://www.w3.org/2001/XMLSchema-instance" xsi:noNamespaceSchemaLocation="http://sumo.sf.net/xsd/net_file.xsd">

    <location netOffset="0.00,0.00" convBoundary="0.00,0.00,100.00,100.00" origBoundary="0.00,0.00,100.00,100.00" projParameter="!"/>

    <edge id=":A_0" function="internal">
        <lane id=":A_0_0" index="0" speed="11.11" length="7.90" shape="-1.65,3.25 -1.34,1.11 -0.42,-0.42 1.11,-1.34 3.25,-1.65"/>
    </edge>
    <edge id=":A_1" function="internal">
        <lane id=":A_1_0" index="0" speed="11.11" length="2.58" shape="3.25,1.65 2.55,1.75 2.05,2.05 1.75,2.55 1.65,3.25"/>
    </edge>
    <edge id=":B_0" function="internal">
        <lane id=":B_0_0" index="0" speed="11.11" length="6.64" shape="98.35,9.35 98.11,7.24 97.40,6.27 96.22,6.45 94.56,7.78"/>
    </edge>
    <edge id=":B_1" function="internal">
        <lane id=":B_1_0" index="0" speed="11.11" length="12.41" shape="98.35,9.35 97.87,5.98 96.43,3.57 94.02,2.13 90.65,1.65"/>
    </edge>
    <edge id=":B_2" function="internal">
        <lane id=":B_2_0" index="0" speed="11.11" length="17.73" shape="90.65,-1.65 95.46,-0.96 98.90,1.10 100.96,4.54 101.65,9.35"/>
    </edge>
    <edge id=":B_3" function="internal">
        <lane id=":B_3_0" index="0" speed="11.11" length="16.51" shape="90.65,-1.65 95.90,-1.06 98.29,0.71 97.85,3.65 94.56,7.78"/>
    </edge>
    <edge id=":B_4" function="internal">
        <lane id=":B_4_0" index="0" speed="11.11" length="6.64" shape="92.22,5.44 93.55,3.78 93.73,2.60 92.76,1.89 90.65,1.65"/>
    </edge>
    <edge id=":B_5" function="internal">
        <lane id=":B_5_0" index="0" speed="11.11" length="16.51" shape="92.22,5.44 96.35,2.15 99.29,1.71 101.06,4.10 101.65,9.35"/>
    </edge>
    <edge id=":C_0" function="internal">
        <lane id=":C_0_0" index="0" speed="11.11" length="17.73" shape="9.35,101.65 4.54,100.96 1.10,98.90 -0.96,95.46 -1.65,90.65"/>
    </edge>
    <edge id=":C_1" function="internal">
        <lane id=":C_1_0" index="0" speed="11.11" length="16.51" shape="9.35,101.65 4.10,101.06 1.71,99.29 2.15,96.35 5.44,92.22"/>
    </edge>
    <edge id=":C_2" function="internal">
        <lane id=":C_2_0" index="0" speed="11.11" length="6.64" shape="7.78,94.56 6.45,96.22 6.27,97.40 7.24,98.11 9.35,98.35"/>
    </edge>
    <edge id=":C_3" function="internal">
        <lane id=":C_3_0" index="0" speed="11.11" length="16.51" shape="7.78,94.56 3.65,97.85 0.71,98.29 -1.06,95.90 -1.65,90.65"/>
    </edge>
    <edge id=":C_4" function="internal">
        <lane id=":C_4_0" index="0" speed="11.11" length="6.64" shape="1.65,90.65 1.89,92.76 2.60,93.73 3.78,93.55 5.44,92.22"/>
    </edge>
    <edge id=":C_5" function="internal">
        <lane id=":C_5_0" index="0" speed="11.11" length="12.41" shape="1.65,90.65 2.13,94.02 3.57,96.43 5.98,97.87 9.35,98.35"/>
    </edge>
    <edge id=":D_0" function="internal">
        <lane id=":D_0_0" index="0" speed="11.11" length="7.90" shape="101.65,96.75 101.34,98.89 100.43,100.42 98.89,101.34 96.75,101.65"/>
    </edge>
    <edge id=":D_1" function="internal">
        <lane id=":D_1_0" index="0" speed="11.11" length="2.58" shape="96.75,98.35 97.45,98.25 97.95,97.95 98.25,97.45 98.35,96.75"/>
    </edge>

    <edge id="AB" from="A" to="B" priority="1" type="T01">
        <lane id="AB_0" index="0" speed="11.11" length="87.40" shape="3.25,-1.65 90.65,-1.65"/>
    </edge>
    <edge id="AC" from="A" to="C" priority="1" type="T01">
        <lane id="AC_0" index="0" speed="11.11" length="87.40" shape="1.65,3.25 1.65,90.65"/>
    </edge>
    <edge id="BA" from="B" to="A" priority="1" type="T01">
        <lane id="BA_0" index="0" speed="11.11" length="87.40" shape="90.65,1.65 3.25,1.65"/>
    </edge>
    <edge id="BC" from="B" to="C" priority="1" type="T01">
        <lane id="BC_0" index="0" speed="11.11" length="122.73" shape="94.56,7.78 7.78,94.56"/>
    </edge>
    <edge id="BD" from="B" to="D" priority="1" type="T01">
        <lane id="BD_0" index="0" speed="11.11" length="87.40" shape="101.65,9.35 101.65,96.75"/>
    </edge>
    <edge id="CA" from="C" to="A" priority="1" type="T01">
        <lane id="CA_0" index="0" speed="11.11" length="87.40" shape="-1.65,90.65 -1.65,3.25"/>
    </edge>
    <edge id="CB" from="C" to="B" priority="1" type="T01">
        <lane id="CB_0" index="0" speed="11.11" length="122.73" shape="5.44,92.22 92.22,5.44"/>
    </edge>
    <edge id="CD" from="C" to="D" priority="1" type="T01">
        <lane id="CD_0" index="0" speed="11.11" length="87.40" shape="9.35,98.35 96.75,98.35"/>
    </edge>
    <edge id="DB" from="D" to="B" priority="1" type="T01">
        <lane id="DB_0" index="0" speed="11.11" length="87.40" shape="98.35,96.75 98.35,9.35"/>
    </edge>
    <edge id="DC" from="D" to="C" priority="1" type="T01">
        <lane id="DC_0" index="0" speed="11.11" length="87.40" shape="96.75,101.65 9.35,101.65"/>
    </edge>

    <junction id="A" type="priority" x="0.00" y="0.00" incLanes="CA_0 BA_0" intLanes=":A_0_0 :A_1_0" shape="-3.25,3.25 3.25,3.25 3.25,-3.25">
        <request index="0" response="00" foes="00" cont="0"/>
        <request index="1" response="00" foes="00" cont="0"/>
    </junction>
    <junction id="B" type="right_before_left" x="100.00" y="0.00" incLanes="DB_0 AB_0 CB_0" intLanes=":B_0_0 :B_1_0 :B_2_0 :B_3_0 :B_4_0 :B_5_0" shape="96.75,9.35 103.25,9.35 90.65,-3.25 90.65,3.25 91.09,4.31 95.69,8.91">
        <request index="0" response="000000" foes="001000" cont="0"/>
        <request index="1" response="110000" foes="111000" cont="0"/>
        <request index="2" response="000000" foes="100000" cont="0"/>
        <request index="3" response="000011" foes="100011" cont="0"/>
        <request index="4" response="000000" foes="000010" cont="0"/>
        <request index="5" response="001100" foes="001110" cont="0"/>
    </junction>
    <junction id="C" type="right_before_left" x="0.00" y="100.00" incLanes="DC_0 BC_0 AC_0" intLanes=":C_0_0 :C_1_0 :C_2_0 :C_3_0 :C_4_0 :C_5_0" shape="9.35,103.25 9.35,96.75 8.91,95.69 4.31,91.09 3.25,90.65 -3.25,90.65">
        <request index="0" response="000000" foes="001000" cont="0"/>
        <request index="1" response="110000" foes="111000" cont="0"/>
        <request index="2" response="000000" foes="100000" cont="0"/>
        <request index="3" response="000011" foes="100011" cont="0"/>
        <request index="4" response="000000" foes="000010" cont="0"/>
        <request index="5" response="001100" foes="001110" cont="0"/>
    </junction>
    <junction id="D" type="priority" x="100.00" y="100.00" incLanes="BD_0 CD_0" intLanes=":D_0_0 :D_1_0" shape="103.25,96.75 96.75,96.75 96.75,103.25">
        <request index="0" response="00" foes="00" cont="0"/>
        <request index="1" response="00" foes="00" cont="0"/>
    </junction>

    <connection from="AB" to="BD" fromLane="0" toLane="0" via=":B_2_0" dir="L" state="="/>
    <connection from="AB" to="BC" fromLane="0" toLane="0" via=":B_3_0" dir="l" state="="/>
    <connection from="AC" to="CB" fromLane="0" toLane="0" via=":C_4_0" dir="r" state="="/>
    <connection from="AC" to="CD" fromLane="0" toLane="0" via=":C_5_0" dir="R" state="="/>
    <connection from="BA" to="AC" fromLane="0" toLane="0" via=":A_1_0" dir="r" state="M"/>
    <connection from="BC" to="CD" fromLane="0" toLane="0" via=":C_2_0" dir="r" state="="/>
    <connection from="BC" to="CA" fromLane="0" toLane="0" via=":C_3_0" dir="l" state="="/>
    <connection from="BD" to="DC" fromLane="0" toLane="0" via=":D_0_0" dir="l" state="M"/>
    <connection from="CA" to="AB" fromLane="0" toLane="0" via=":A_0_0" dir="l" state="M"/>
    <connection from="CB" to="BA" fromLane="0" toLane="0" via=":B_4_0" dir="r" state="="/>
    <connection from="CB" to="BD" fromLane="0" toLane="0" via=":B_5_0" dir="l" state="="/>
    <connection from="CD" to="DB" fromLane="0" toLane="0" via=":D_1_0" dir="r" state="M"/>
    <connection from="DB" to="BC" fromLane="0" toLane="0" via=":B_0_0" dir="r" state="="/>
    <connection from="DB" to="BA" fromLane="0" toLane="0" via=":B_1_0" dir="R" state="="/>
    <connection from="DC" to="CA" fromLane="0" toLane="0" via=":C_0_0" dir="L" state="="/>
    <connection from="DC" to="CB" fromLane="0" toLane="0" via=":C_1_0" dir="l" state="="/>

    <connection from=":A_0" to="AB" fromLane="0" toLane="0" dir="s" state="M"/>
    <connection from=":A_1" to="AC" fromLane="0" toLane="0" dir="s" state="M"/>
    <connection from=":B_0" to="BC" fromLane="0" toLane="0" dir="s" state="M"/>
    <connection from=":B_1" to="BA" fromLane="0" toLane="0" dir="s" state="M"/>
    <connection from=":B_2" to="BD" fromLane="0" toLane="0" dir="s" state="M"/>
    <connection from=":B_3" to="BC" fromLane="0" toLane="0" dir="s" state="M"/>
    <connection from=":B_4" to="BA" fromLane="0" toLane="0" dir="s" state="M"/>
    <connection from=":B_5" to="BD" fromLane="0" toLane="0" dir="s" state="M"/>
    <connection from=":C_0" to="CA" fromLane="0" toLane="0" dir="s" state="M"/>
    <connection from=":C_1" to="CB" fromLane="0" toLane="0" dir="s" state="M"/>
    <connection from=":C_2" to="CD" fromLane="0" toLane="0" dir="s" state="M"/>
    <connection from=":C_3" to="CA" fromLane="0" toLane="0" dir="s" state="M"/>
    <connection from=":C_4" to="CB" fromLane="0" toLane="0" dir="s" state="M"/>
    <connection from=":C_5" to="CD" fromLane="0" toLane="0" dir="s" state="M"/>
    <connection from=":D_0" to="DC" fromLane="0" toLane="0" dir="s" state="M"/>
    <connection from=":D_1" to="DB" fromLane="0" toLane="0" dir="s" state="M"/>

</net>
