<?xml version="1.0" encoding="UTF-8"?>
<types>
   <type id="T01" priority="1" numLanes="1" speed="11.111"/>
</types>
