<?xml version="1.0" encoding="UTF-8"?>

<!-- generated on 2025-02-27 00:13:24 by Eclipse SUMO netedit Version 1.20.0
<configuration xmlns:xsi="http://www.w3.org/2001/XMLSchema-instance" xsi:noNamespaceSchemaLocation="http://sumo.dlr.de/xsd/neteditConfiguration.xsd">

    <input>
        <sumocfg-file value="/home/refo/Documents/Github/marl/scenarios/hangzhou_4_4/simulation.sumocfg"/>
        <additional-files value=""/>
        <route-files value="/home/refo/Documents/Github/marl/scenarios/hangzhou_4_4/routes.rou.xml"/>
        <sumo-net-file value="/home/refo/Documents/Github/marl/scenarios/hangzhou_4_4/network.net.xml"/>
    </input>

    <output>
        <output-file value="/home/refo/Documents/Github/marl/scenarios/hangzhou_4_4/network.net.xml"/>
    </output>

    <processing>
        <geometry.min-radius.fix.railways value="false"/>
        <geometry.max-grade.fix value="false"/>
        <offset.disable-normalization value="true"/>
        <lefthand value="0"/>
    </processing>

    <junctions>
        <no-turnarounds value="true"/>
        <junctions.corner-detail value="5"/>
        <junctions.limit-turn-speed value="5.50"/>
        <rectangular-lane-cut value="0"/>
    </junctions>

    <pedestrian>
        <walkingareas value="0"/>
    </pedestrian>

</configuration>
-->

<net version="1.20" junctionCornerDetail="5" limitTurnSpeed="5.50" xmlns:xsi="http://www.w3.org/2001/XMLSchema-instance" xsi:noNamespaceSchemaLocation="http://sumo.dlr.de/xsd/net_file.xsd">

    <location netOffset="0.00,0.00" convBoundary="-800.00,-600.00,3200.03,2400.04" origBoundary="-800.00,-600.00,3200.00,2400.00" projParameter="!"/>

    <edge id=":intersection_1_1_0" function="internal">
        <lane id=":intersection_1_1_0_0" index="0" speed="6.51" length="9.03" shape="-8.00,13.60 -8.35,11.15 -9.40,9.40 -11.15,8.35 -13.60,8.00"/>
        <lane id=":intersection_1_1_0_1" index="1" speed="7.33" length="11.73" shape="-8.00,13.60 -8.35,9.75 -9.40,7.00 -11.15,5.35 -13.60,4.80"/>
        <lane id=":intersection_1_1_0_2" index="2" speed="8.10" length="14.57" shape="-8.00,13.60 -8.35,8.35 -9.40,4.60 -11.15,2.35 -13.60,1.60"/>
    </edge>
    <edge id=":intersection_1_1_3" function="internal">
        <lane id=":intersection_1_1_3_0" index="0" speed="11.11" length="27.37" shape="-4.80,13.60 -5.30,5.50 -6.40,0.00 -7.50,-5.50 -8.00,-13.60"/>
        <lane id=":intersection_1_1_3_1" index="1" speed="11.11" length="27.37" shape="-4.80,13.60 -4.80,-13.60"/>
        <lane id=":intersection_1_1_3_2" index="2" speed="11.11" length="27.37" shape="-4.80,13.60 -4.30,5.50 -3.20,-0.00 -2.10,-5.50 -1.60,-13.60"/>
    </edge>
    <edge id=":intersection_1_1_6" function="internal">
        <lane id=":intersection_1_1_6_0" index="0" speed="11.11" length="22.18" shape="-1.60,13.60 -0.65,4.15 2.20,-2.60 6.27,-6.07"/>
        <lane id=":intersection_1_1_6_1" index="1" speed="10.88" length="20.74" shape="-1.60,13.60 -0.65,5.55 2.20,-0.20 6.95,-3.65 7.29,-3.71"/>
        <lane id=":intersection_1_1_6_2" index="2" speed="10.36" length="21.49" shape="-1.60,13.60 -0.65,6.95 2.20,2.20 6.95,-0.65 10.61,-1.17"/>
    </edge>
    <edge id=":intersection_1_1_36" function="internal">
        <lane id=":intersection_1_1_36_0" index="0" speed="11.11" length="7.68" shape="6.27,-6.07 6.95,-6.65 13.60,-8.00"/>
    </edge>
    <edge id=":intersection_1_1_37" function="internal">
        <lane id=":intersection_1_1_37_0" index="0" speed="10.88" length="6.40" shape="7.29,-3.71 13.60,-4.80"/>
    </edge>
    <edge id=":intersection_1_1_38" function="internal">
        <lane id=":intersection_1_1_38_0" index="0" speed="10.36" length="3.02" shape="10.61,-1.17 13.60,-1.60"/>
    </edge>
    <edge id=":intersection_1_1_9" function="internal">
        <lane id=":intersection_1_1_9_0" index="0" speed="6.51" length="9.03" shape="13.60,8.00 11.15,8.35 9.40,9.40 8.35,11.15 8.00,13.60"/>
        <lane id=":intersection_1_1_9_1" index="1" speed="7.33" length="11.73" shape="13.60,8.00 9.75,8.35 7.00,9.40 5.35,11.15 4.80,13.60"/>
        <lane id=":intersection_1_1_9_2" index="2" speed="8.10" length="14.57" shape="13.60,8.00 8.35,8.35 4.60,9.40 2.35,11.15 1.60,13.60"/>
    </edge>
    <edge id=":intersection_1_1_12" function="internal">
        <lane id=":intersection_1_1_12_0" index="0" speed="11.11" length="27.37" shape="13.60,4.80 5.50,5.30 0.00,6.40 -5.50,7.50 -13.60,8.00"/>
        <lane id=":intersection_1_1_12_1" index="1" speed="11.11" length="27.37" shape="13.60,4.80 -13.60,4.80"/>
        <lane id=":intersection_1_1_12_2" index="2" speed="11.11" length="27.37" shape="13.60,4.80 5.50,4.30 -0.00,3.20 -5.50,2.10 -13.60,1.60"/>
    </edge>
    <edge id=":intersection_1_1_15" function="internal">
        <lane id=":intersection_1_1_15_0" index="0" speed="11.11" length="22.18" shape="13.60,1.60 4.15,0.65 -2.60,-2.20 -6.07,-6.27"/>
        <lane id=":intersection_1_1_15_1" index="1" speed="10.88" length="20.74" shape="13.60,1.60 5.55,0.65 -0.20,-2.20 -3.65,-6.95 -3.71,-7.29"/>
        <lane id=":intersection_1_1_15_2" index="2" speed="10.36" length="21.49" shape="13.60,1.60 6.95,0.65 2.20,-2.20 -0.65,-6.95 -1.17,-10.61"/>
    </edge>
    <edge id=":intersection_1_1_39" function="internal">
        <lane id=":intersection_1_1_39_0" index="0" speed="11.11" length="7.68" shape="-6.07,-6.27 -6.65,-6.95 -8.00,-13.60"/>
    </edge>
    <edge id=":intersection_1_1_40" function="internal">
        <lane id=":intersection_1_1_40_0" index="0" speed="10.88" length="6.40" shape="-3.71,-7.29 -4.80,-13.60"/>
    </edge>
    <edge id=":intersection_1_1_41" function="internal">
        <lane id=":intersection_1_1_41_0" index="0" speed="10.36" length="3.02" shape="-1.17,-10.61 -1.60,-13.60"/>
    </edge>
    <edge id=":intersection_1_1_18" function="internal">
        <lane id=":intersection_1_1_18_0" index="0" speed="6.51" length="9.03" shape="8.00,-13.60 8.35,-11.15 9.40,-9.40 11.15,-8.35 13.60,-8.00"/>
        <lane id=":intersection_1_1_18_1" index="1" speed="7.33" length="11.73" shape="8.00,-13.60 8.35,-9.75 9.40,-7.00 11.15,-5.35 13.60,-4.80"/>
        <lane id=":intersection_1_1_18_2" index="2" speed="8.10" length="14.57" shape="8.00,-13.60 8.35,-8.35 9.40,-4.60 11.15,-2.35 13.60,-1.60"/>
    </edge>
    <edge id=":intersection_1_1_21" function="internal">
        <lane id=":intersection_1_1_21_0" index="0" speed="11.11" length="27.37" shape="4.80,-13.60 5.30,-5.50 6.40,0.00 7.50,5.50 8.00,13.60"/>
        <lane id=":intersection_1_1_21_1" index="1" speed="11.11" length="27.37" shape="4.80,-13.60 4.80,13.60"/>
        <lane id=":intersection_1_1_21_2" index="2" speed="11.11" length="27.37" shape="4.80,-13.60 4.30,-5.50 3.20,-0.00 2.10,5.50 1.60,13.60"/>
    </edge>
    <edge id=":intersection_1_1_24" function="internal">
        <lane id=":intersection_1_1_24_0" index="0" speed="11.11" length="22.18" shape="1.60,-13.60 0.65,-4.15 -2.20,2.60 -6.27,6.07"/>
        <lane id=":intersection_1_1_24_1" index="1" speed="10.88" length="20.74" shape="1.60,-13.60 0.65,-5.55 -2.20,0.20 -6.95,3.65 -7.29,3.71"/>
        <lane id=":intersection_1_1_24_2" index="2" speed="10.36" length="21.49" shape="1.60,-13.60 0.65,-6.95 -2.20,-2.20 -6.95,0.65 -10.61,1.17"/>
    </edge>
    <edge id=":intersection_1_1_42" function="internal">
        <lane id=":intersection_1_1_42_0" index="0" speed="11.11" length="7.68" shape="-6.27,6.07 -6.95,6.65 -13.60,8.00"/>
    </edge>
    <edge id=":intersection_1_1_43" function="internal">
        <lane id=":intersection_1_1_43_0" index="0" speed="10.88" length="6.40" shape="-7.29,3.71 -13.60,4.80"/>
    </edge>
    <edge id=":intersection_1_1_44" function="internal">
        <lane id=":intersection_1_1_44_0" index="0" speed="10.36" length="3.02" shape="-10.61,1.17 -13.60,1.60"/>
    </edge>
    <edge id=":intersection_1_1_27" function="internal">
        <lane id=":intersection_1_1_27_0" index="0" speed="6.51" length="9.03" shape="-13.60,-8.00 -11.15,-8.35 -9.40,-9.40 -8.35,-11.15 -8.00,-13.60"/>
        <lane id=":intersection_1_1_27_1" index="1" speed="7.33" length="11.73" shape="-13.60,-8.00 -9.75,-8.35 -7.00,-9.40 -5.35,-11.15 -4.80,-13.60"/>
        <lane id=":intersection_1_1_27_2" index="2" speed="8.10" length="14.57" shape="-13.60,-8.00 -8.35,-8.35 -4.60,-9.40 -2.35,-11.15 -1.60,-13.60"/>
    </edge>
    <edge id=":intersection_1_1_30" function="internal">
        <lane id=":intersection_1_1_30_0" index="0" speed="11.11" length="27.37" shape="-13.60,-4.80 -5.50,-5.30 0.00,-6.40 5.50,-7.50 13.60,-8.00"/>
        <lane id=":intersection_1_1_30_1" index="1" speed="11.11" length="27.37" shape="-13.60,-4.80 13.60,-4.80"/>
        <lane id=":intersection_1_1_30_2" index="2" speed="11.11" length="27.37" shape="-13.60,-4.80 -5.50,-4.30 -0.00,-3.20 5.50,-2.10 13.60,-1.60"/>
    </edge>
    <edge id=":intersection_1_1_33" function="internal">
        <lane id=":intersection_1_1_33_0" index="0" speed="11.11" length="22.18" shape="-13.60,-1.60 -4.15,-0.65 2.60,2.20 6.07,6.27"/>
        <lane id=":intersection_1_1_33_1" index="1" speed="10.88" length="20.74" shape="-13.60,-1.60 -5.55,-0.65 0.20,2.20 3.65,6.95 3.71,7.29"/>
        <lane id=":intersection_1_1_33_2" index="2" speed="10.36" length="21.49" shape="-13.60,-1.60 -6.95,-0.65 -2.20,2.20 0.65,6.95 1.17,10.61"/>
    </edge>
    <edge id=":intersection_1_1_45" function="internal">
        <lane id=":intersection_1_1_45_0" index="0" speed="11.11" length="7.68" shape="6.07,6.27 6.65,6.95 8.00,13.60"/>
    </edge>
    <edge id=":intersection_1_1_46" function="internal">
        <lane id=":intersection_1_1_46_0" index="0" speed="10.88" length="6.40" shape="3.71,7.29 4.80,13.60"/>
    </edge>
    <edge id=":intersection_1_1_47" function="internal">
        <lane id=":intersection_1_1_47_0" index="0" speed="10.36" length="3.02" shape="1.17,10.61 1.60,13.60"/>
    </edge>
    <edge id=":intersection_1_2_0" function="internal">
        <lane id=":intersection_1_2_0_0" index="0" speed="6.51" length="9.03" shape="-8.00,613.60 -8.35,611.15 -9.40,609.40 -11.15,608.35 -13.60,608.00"/>
        <lane id=":intersection_1_2_0_1" index="1" speed="7.33" length="11.73" shape="-8.00,613.60 -8.35,609.75 -9.40,607.00 -11.15,605.35 -13.60,604.80"/>
        <lane id=":intersection_1_2_0_2" index="2" speed="8.10" length="14.57" shape="-8.00,613.60 -8.35,608.35 -9.40,604.60 -11.15,602.35 -13.60,601.60"/>
    </edge>
    <edge id=":intersection_1_2_3" function="internal">
        <lane id=":intersection_1_2_3_0" index="0" speed="11.11" length="27.37" shape="-4.80,613.60 -5.30,605.50 -6.40,600.00 -7.50,594.50 -8.00,586.40"/>
        <lane id=":intersection_1_2_3_1" index="1" speed="11.11" length="27.37" shape="-4.80,613.60 -4.80,586.40"/>
        <lane id=":intersection_1_2_3_2" index="2" speed="11.11" length="27.37" shape="-4.80,613.60 -4.30,605.50 -3.20,600.00 -2.10,594.50 -1.60,586.40"/>
    </edge>
    <edge id=":intersection_1_2_6" function="internal">
        <lane id=":intersection_1_2_6_0" index="0" speed="11.11" length="22.18" shape="-1.60,613.60 -0.65,604.15 2.20,597.40 6.27,593.93"/>
        <lane id=":intersection_1_2_6_1" index="1" speed="10.88" length="20.74" shape="-1.60,613.60 -0.65,605.55 2.20,599.80 6.95,596.35 7.29,596.29"/>
        <lane id=":intersection_1_2_6_2" index="2" speed="10.36" length="21.49" shape="-1.60,613.60 -0.65,606.95 2.20,602.20 6.95,599.35 10.61,598.83"/>
    </edge>
    <edge id=":intersection_1_2_36" function="internal">
        <lane id=":intersection_1_2_36_0" index="0" speed="11.11" length="7.68" shape="6.27,593.93 6.95,593.35 13.60,592.00"/>
    </edge>
    <edge id=":intersection_1_2_37" function="internal">
        <lane id=":intersection_1_2_37_0" index="0" speed="10.88" length="6.40" shape="7.29,596.29 13.60,595.20"/>
    </edge>
    <edge id=":intersection_1_2_38" function="internal">
        <lane id=":intersection_1_2_38_0" index="0" speed="10.36" length="3.02" shape="10.61,598.83 13.60,598.40"/>
    </edge>
    <edge id=":intersection_1_2_9" function="internal">
        <lane id=":intersection_1_2_9_0" index="0" speed="6.51" length="9.03" shape="13.60,608.00 11.15,608.35 9.40,609.40 8.35,611.15 8.00,613.60"/>
        <lane id=":intersection_1_2_9_1" index="1" speed="7.33" length="11.73" shape="13.60,608.00 9.75,608.35 7.00,609.40 5.35,611.15 4.80,613.60"/>
        <lane id=":intersection_1_2_9_2" index="2" speed="8.10" length="14.57" shape="13.60,608.00 8.35,608.35 4.60,609.40 2.35,611.15 1.60,613.60"/>
    </edge>
    <edge id=":intersection_1_2_12" function="internal">
        <lane id=":intersection_1_2_12_0" index="0" speed="11.11" length="27.37" shape="13.60,604.80 5.50,605.30 0.00,606.40 -5.50,607.50 -13.60,608.00"/>
        <lane id=":intersection_1_2_12_1" index="1" speed="11.11" length="27.37" shape="13.60,604.80 -13.60,604.80"/>
        <lane id=":intersection_1_2_12_2" index="2" speed="11.11" length="27.37" shape="13.60,604.80 5.50,604.30 -0.00,603.20 -5.50,602.10 -13.60,601.60"/>
    </edge>
    <edge id=":intersection_1_2_15" function="internal">
        <lane id=":intersection_1_2_15_0" index="0" speed="11.11" length="22.18" shape="13.60,601.60 4.15,600.65 -2.60,597.80 -6.07,593.73"/>
        <lane id=":intersection_1_2_15_1" index="1" speed="10.88" length="20.74" shape="13.60,601.60 5.55,600.65 -0.20,597.80 -3.65,593.05 -3.71,592.71"/>
        <lane id=":intersection_1_2_15_2" index="2" speed="10.36" length="21.49" shape="13.60,601.60 6.95,600.65 2.20,597.80 -0.65,593.05 -1.17,589.39"/>
    </edge>
    <edge id=":intersection_1_2_39" function="internal">
        <lane id=":intersection_1_2_39_0" index="0" speed="11.11" length="7.68" shape="-6.07,593.73 -6.65,593.05 -8.00,586.40"/>
    </edge>
    <edge id=":intersection_1_2_40" function="internal">
        <lane id=":intersection_1_2_40_0" index="0" speed="10.88" length="6.40" shape="-3.71,592.71 -4.80,586.40"/>
    </edge>
    <edge id=":intersection_1_2_41" function="internal">
        <lane id=":intersection_1_2_41_0" index="0" speed="10.36" length="3.02" shape="-1.17,589.39 -1.60,586.40"/>
    </edge>
    <edge id=":intersection_1_2_18" function="internal">
        <lane id=":intersection_1_2_18_0" index="0" speed="6.51" length="9.03" shape="8.00,586.40 8.35,588.85 9.40,590.60 11.15,591.65 13.60,592.00"/>
        <lane id=":intersection_1_2_18_1" index="1" speed="7.33" length="11.73" shape="8.00,586.40 8.35,590.25 9.40,593.00 11.15,594.65 13.60,595.20"/>
        <lane id=":intersection_1_2_18_2" index="2" speed="8.10" length="14.57" shape="8.00,586.40 8.35,591.65 9.40,595.40 11.15,597.65 13.60,598.40"/>
    </edge>
    <edge id=":intersection_1_2_21" function="internal">
        <lane id=":intersection_1_2_21_0" index="0" speed="11.11" length="27.37" shape="4.80,586.40 5.30,594.50 6.40,600.00 7.50,605.50 8.00,613.60"/>
        <lane id=":intersection_1_2_21_1" index="1" speed="11.11" length="27.37" shape="4.80,586.40 4.80,613.60"/>
        <lane id=":intersection_1_2_21_2" index="2" speed="11.11" length="27.37" shape="4.80,586.40 4.30,594.50 3.20,600.00 2.10,605.50 1.60,613.60"/>
    </edge>
    <edge id=":intersection_1_2_24" function="internal">
        <lane id=":intersection_1_2_24_0" index="0" speed="11.11" length="22.18" shape="1.60,586.40 0.65,595.85 -2.20,602.60 -6.27,606.07"/>
        <lane id=":intersection_1_2_24_1" index="1" speed="10.88" length="20.74" shape="1.60,586.40 0.65,594.45 -2.20,600.20 -6.95,603.65 -7.29,603.71"/>
        <lane id=":intersection_1_2_24_2" index="2" speed="10.36" length="21.49" shape="1.60,586.40 0.65,593.05 -2.20,597.80 -6.95,600.65 -10.61,601.17"/>
    </edge>
    <edge id=":intersection_1_2_42" function="internal">
        <lane id=":intersection_1_2_42_0" index="0" speed="11.11" length="7.68" shape="-6.27,606.07 -6.95,606.65 -13.60,608.00"/>
    </edge>
    <edge id=":intersection_1_2_43" function="internal">
        <lane id=":intersection_1_2_43_0" index="0" speed="10.88" length="6.40" shape="-7.29,603.71 -13.60,604.80"/>
    </edge>
    <edge id=":intersection_1_2_44" function="internal">
        <lane id=":intersection_1_2_44_0" index="0" speed="10.36" length="3.02" shape="-10.61,601.17 -13.60,601.60"/>
    </edge>
    <edge id=":intersection_1_2_27" function="internal">
        <lane id=":intersection_1_2_27_0" index="0" speed="6.51" length="9.03" shape="-13.60,592.00 -11.15,591.65 -9.40,590.60 -8.35,588.85 -8.00,586.40"/>
        <lane id=":intersection_1_2_27_1" index="1" speed="7.33" length="11.73" shape="-13.60,592.00 -9.75,591.65 -7.00,590.60 -5.35,588.85 -4.80,586.40"/>
        <lane id=":intersection_1_2_27_2" index="2" speed="8.10" length="14.57" shape="-13.60,592.00 -8.35,591.65 -4.60,590.60 -2.35,588.85 -1.60,586.40"/>
    </edge>
    <edge id=":intersection_1_2_30" function="internal">
        <lane id=":intersection_1_2_30_0" index="0" speed="11.11" length="27.37" shape="-13.60,595.20 -5.50,594.70 0.00,593.60 5.50,592.50 13.60,592.00"/>
        <lane id=":intersection_1_2_30_1" index="1" speed="11.11" length="27.37" shape="-13.60,595.20 13.60,595.20"/>
        <lane id=":intersection_1_2_30_2" index="2" speed="11.11" length="27.37" shape="-13.60,595.20 -5.50,595.70 -0.00,596.80 5.50,597.90 13.60,598.40"/>
    </edge>
    <edge id=":intersection_1_2_33" function="internal">
        <lane id=":intersection_1_2_33_0" index="0" speed="11.11" length="22.18" shape="-13.60,598.40 -4.15,599.35 2.60,602.20 6.07,606.27"/>
        <lane id=":intersection_1_2_33_1" index="1" speed="10.88" length="20.74" shape="-13.60,598.40 -5.55,599.35 0.20,602.20 3.65,606.95 3.71,607.29"/>
        <lane id=":intersection_1_2_33_2" index="2" speed="10.36" length="21.49" shape="-13.60,598.40 -6.95,599.35 -2.20,602.20 0.65,606.95 1.17,610.61"/>
    </edge>
    <edge id=":intersection_1_2_45" function="internal">
        <lane id=":intersection_1_2_45_0" index="0" speed="11.11" length="7.68" shape="6.07,606.27 6.65,606.95 8.00,613.60"/>
    </edge>
    <edge id=":intersection_1_2_46" function="internal">
        <lane id=":intersection_1_2_46_0" index="0" speed="10.88" length="6.40" shape="3.71,607.29 4.80,613.60"/>
    </edge>
    <edge id=":intersection_1_2_47" function="internal">
        <lane id=":intersection_1_2_47_0" index="0" speed="10.36" length="3.02" shape="1.17,610.61 1.60,613.60"/>
    </edge>
    <edge id=":intersection_1_3_0" function="internal">
        <lane id=":intersection_1_3_0_0" index="0" speed="6.51" length="9.03" shape="-8.00,1213.60 -8.35,1211.15 -9.40,1209.40 -11.15,1208.35 -13.60,1208.00"/>
        <lane id=":intersection_1_3_0_1" index="1" speed="7.33" length="11.73" shape="-8.00,1213.60 -8.35,1209.75 -9.40,1207.00 -11.15,1205.35 -13.60,1204.80"/>
        <lane id=":intersection_1_3_0_2" index="2" speed="8.10" length="14.57" shape="-8.00,1213.60 -8.35,1208.35 -9.40,1204.60 -11.15,1202.35 -13.60,1201.60"/>
    </edge>
    <edge id=":intersection_1_3_3" function="internal">
        <lane id=":intersection_1_3_3_0" index="0" speed="11.11" length="27.37" shape="-4.80,1213.60 -5.30,1205.50 -6.40,1200.00 -7.50,1194.50 -8.00,1186.40"/>
        <lane id=":intersection_1_3_3_1" index="1" speed="11.11" length="27.37" shape="-4.80,1213.60 -4.80,1186.40"/>
        <lane id=":intersection_1_3_3_2" index="2" speed="11.11" length="27.37" shape="-4.80,1213.60 -4.30,1205.50 -3.20,1200.00 -2.10,1194.50 -1.60,1186.40"/>
    </edge>
    <edge id=":intersection_1_3_6" function="internal">
        <lane id=":intersection_1_3_6_0" index="0" speed="11.11" length="22.18" shape="-1.60,1213.60 -0.65,1204.15 2.20,1197.40 6.27,1193.93"/>
        <lane id=":intersection_1_3_6_1" index="1" speed="10.88" length="20.74" shape="-1.60,1213.60 -0.65,1205.55 2.20,1199.80 6.95,1196.35 7.29,1196.29"/>
        <lane id=":intersection_1_3_6_2" index="2" speed="10.36" length="21.49" shape="-1.60,1213.60 -0.65,1206.95 2.20,1202.20 6.95,1199.35 10.61,1198.83"/>
    </edge>
    <edge id=":intersection_1_3_36" function="internal">
        <lane id=":intersection_1_3_36_0" index="0" speed="11.11" length="7.68" shape="6.27,1193.93 6.95,1193.35 13.60,1192.00"/>
    </edge>
    <edge id=":intersection_1_3_37" function="internal">
        <lane id=":intersection_1_3_37_0" index="0" speed="10.88" length="6.40" shape="7.29,1196.29 13.60,1195.20"/>
    </edge>
    <edge id=":intersection_1_3_38" function="internal">
        <lane id=":intersection_1_3_38_0" index="0" speed="10.36" length="3.02" shape="10.61,1198.83 13.60,1198.40"/>
    </edge>
    <edge id=":intersection_1_3_9" function="internal">
        <lane id=":intersection_1_3_9_0" index="0" speed="6.51" length="9.03" shape="13.60,1208.00 11.15,1208.35 9.40,1209.40 8.35,1211.15 8.00,1213.60"/>
        <lane id=":intersection_1_3_9_1" index="1" speed="7.33" length="11.73" shape="13.60,1208.00 9.75,1208.35 7.00,1209.40 5.35,1211.15 4.80,1213.60"/>
        <lane id=":intersection_1_3_9_2" index="2" speed="8.10" length="14.57" shape="13.60,1208.00 8.35,1208.35 4.60,1209.40 2.35,1211.15 1.60,1213.60"/>
    </edge>
    <edge id=":intersection_1_3_12" function="internal">
        <lane id=":intersection_1_3_12_0" index="0" speed="11.11" length="27.37" shape="13.60,1204.80 5.50,1205.30 0.00,1206.40 -5.50,1207.50 -13.60,1208.00"/>
        <lane id=":intersection_1_3_12_1" index="1" speed="11.11" length="27.37" shape="13.60,1204.80 -13.60,1204.80"/>
        <lane id=":intersection_1_3_12_2" index="2" speed="11.11" length="27.37" shape="13.60,1204.80 5.50,1204.30 -0.00,1203.20 -5.50,1202.10 -13.60,1201.60"/>
    </edge>
    <edge id=":intersection_1_3_15" function="internal">
        <lane id=":intersection_1_3_15_0" index="0" speed="11.11" length="22.18" shape="13.60,1201.60 4.15,1200.65 -2.60,1197.80 -6.07,1193.73"/>
        <lane id=":intersection_1_3_15_1" index="1" speed="10.88" length="20.74" shape="13.60,1201.60 5.55,1200.65 -0.20,1197.80 -3.65,1193.05 -3.71,1192.71"/>
        <lane id=":intersection_1_3_15_2" index="2" speed="10.36" length="21.49" shape="13.60,1201.60 6.95,1200.65 2.20,1197.80 -0.65,1193.05 -1.17,1189.39"/>
    </edge>
    <edge id=":intersection_1_3_39" function="internal">
        <lane id=":intersection_1_3_39_0" index="0" speed="11.11" length="7.68" shape="-6.07,1193.73 -6.65,1193.05 -8.00,1186.40"/>
    </edge>
    <edge id=":intersection_1_3_40" function="internal">
        <lane id=":intersection_1_3_40_0" index="0" speed="10.88" length="6.40" shape="-3.71,1192.71 -4.80,1186.40"/>
    </edge>
    <edge id=":intersection_1_3_41" function="internal">
        <lane id=":intersection_1_3_41_0" index="0" speed="10.36" length="3.02" shape="-1.17,1189.39 -1.60,1186.40"/>
    </edge>
    <edge id=":intersection_1_3_18" function="internal">
        <lane id=":intersection_1_3_18_0" index="0" speed="6.51" length="9.03" shape="8.00,1186.40 8.35,1188.85 9.40,1190.60 11.15,1191.65 13.60,1192.00"/>
        <lane id=":intersection_1_3_18_1" index="1" speed="7.33" length="11.73" shape="8.00,1186.40 8.35,1190.25 9.40,1193.00 11.15,1194.65 13.60,1195.20"/>
        <lane id=":intersection_1_3_18_2" index="2" speed="8.10" length="14.57" shape="8.00,1186.40 8.35,1191.65 9.40,1195.40 11.15,1197.65 13.60,1198.40"/>
    </edge>
    <edge id=":intersection_1_3_21" function="internal">
        <lane id=":intersection_1_3_21_0" index="0" speed="11.11" length="27.37" shape="4.80,1186.40 5.30,1194.50 6.40,1200.00 7.50,1205.50 8.00,1213.60"/>
        <lane id=":intersection_1_3_21_1" index="1" speed="11.11" length="27.37" shape="4.80,1186.40 4.80,1213.60"/>
        <lane id=":intersection_1_3_21_2" index="2" speed="11.11" length="27.37" shape="4.80,1186.40 4.30,1194.50 3.20,1200.00 2.10,1205.50 1.60,1213.60"/>
    </edge>
    <edge id=":intersection_1_3_24" function="internal">
        <lane id=":intersection_1_3_24_0" index="0" speed="11.11" length="22.18" shape="1.60,1186.40 0.65,1195.85 -2.20,1202.60 -6.27,1206.07"/>
        <lane id=":intersection_1_3_24_1" index="1" speed="10.88" length="20.74" shape="1.60,1186.40 0.65,1194.45 -2.20,1200.20 -6.95,1203.65 -7.29,1203.71"/>
        <lane id=":intersection_1_3_24_2" index="2" speed="10.36" length="21.49" shape="1.60,1186.40 0.65,1193.05 -2.20,1197.80 -6.95,1200.65 -10.61,1201.17"/>
    </edge>
    <edge id=":intersection_1_3_42" function="internal">
        <lane id=":intersection_1_3_42_0" index="0" speed="11.11" length="7.68" shape="-6.27,1206.07 -6.95,1206.65 -13.60,1208.00"/>
    </edge>
    <edge id=":intersection_1_3_43" function="internal">
        <lane id=":intersection_1_3_43_0" index="0" speed="10.88" length="6.40" shape="-7.29,1203.71 -13.60,1204.80"/>
    </edge>
    <edge id=":intersection_1_3_44" function="internal">
        <lane id=":intersection_1_3_44_0" index="0" speed="10.36" length="3.02" shape="-10.61,1201.17 -13.60,1201.60"/>
    </edge>
    <edge id=":intersection_1_3_27" function="internal">
        <lane id=":intersection_1_3_27_0" index="0" speed="6.51" length="9.03" shape="-13.60,1192.00 -11.15,1191.65 -9.40,1190.60 -8.35,1188.85 -8.00,1186.40"/>
        <lane id=":intersection_1_3_27_1" index="1" speed="7.33" length="11.73" shape="-13.60,1192.00 -9.75,1191.65 -7.00,1190.60 -5.35,1188.85 -4.80,1186.40"/>
        <lane id=":intersection_1_3_27_2" index="2" speed="8.10" length="14.57" shape="-13.60,1192.00 -8.35,1191.65 -4.60,1190.60 -2.35,1188.85 -1.60,1186.40"/>
    </edge>
    <edge id=":intersection_1_3_30" function="internal">
        <lane id=":intersection_1_3_30_0" index="0" speed="11.11" length="27.37" shape="-13.60,1195.20 -5.50,1194.70 0.00,1193.60 5.50,1192.50 13.60,1192.00"/>
        <lane id=":intersection_1_3_30_1" index="1" speed="11.11" length="27.37" shape="-13.60,1195.20 13.60,1195.20"/>
        <lane id=":intersection_1_3_30_2" index="2" speed="11.11" length="27.37" shape="-13.60,1195.20 -5.50,1195.70 -0.00,1196.80 5.50,1197.90 13.60,1198.40"/>
    </edge>
    <edge id=":intersection_1_3_33" function="internal">
        <lane id=":intersection_1_3_33_0" index="0" speed="11.11" length="22.18" shape="-13.60,1198.40 -4.15,1199.35 2.60,1202.20 6.07,1206.27"/>
        <lane id=":intersection_1_3_33_1" index="1" speed="10.88" length="20.74" shape="-13.60,1198.40 -5.55,1199.35 0.20,1202.20 3.65,1206.95 3.71,1207.29"/>
        <lane id=":intersection_1_3_33_2" index="2" speed="10.36" length="21.49" shape="-13.60,1198.40 -6.95,1199.35 -2.20,1202.20 0.65,1206.95 1.17,1210.61"/>
    </edge>
    <edge id=":intersection_1_3_45" function="internal">
        <lane id=":intersection_1_3_45_0" index="0" speed="11.11" length="7.68" shape="6.07,1206.27 6.65,1206.95 8.00,1213.60"/>
    </edge>
    <edge id=":intersection_1_3_46" function="internal">
        <lane id=":intersection_1_3_46_0" index="0" speed="10.88" length="6.40" shape="3.71,1207.29 4.80,1213.60"/>
    </edge>
    <edge id=":intersection_1_3_47" function="internal">
        <lane id=":intersection_1_3_47_0" index="0" speed="10.36" length="3.02" shape="1.17,1210.61 1.60,1213.60"/>
    </edge>
    <edge id=":intersection_1_4_0" function="internal">
        <lane id=":intersection_1_4_0_0" index="0" speed="6.51" length="9.03" shape="-8.00,1813.60 -8.35,1811.15 -9.40,1809.40 -11.15,1808.35 -13.60,1808.00"/>
        <lane id=":intersection_1_4_0_1" index="1" speed="7.33" length="11.73" shape="-8.00,1813.60 -8.35,1809.75 -9.40,1807.00 -11.15,1805.35 -13.60,1804.80"/>
        <lane id=":intersection_1_4_0_2" index="2" speed="8.10" length="14.57" shape="-8.00,1813.60 -8.35,1808.35 -9.40,1804.60 -11.15,1802.35 -13.60,1801.60"/>
    </edge>
    <edge id=":intersection_1_4_3" function="internal">
        <lane id=":intersection_1_4_3_0" index="0" speed="11.11" length="27.37" shape="-4.80,1813.60 -5.30,1805.50 -6.40,1800.00 -7.50,1794.50 -8.00,1786.40"/>
        <lane id=":intersection_1_4_3_1" index="1" speed="11.11" length="27.37" shape="-4.80,1813.60 -4.80,1786.40"/>
        <lane id=":intersection_1_4_3_2" index="2" speed="11.11" length="27.37" shape="-4.80,1813.60 -4.30,1805.50 -3.20,1800.00 -2.10,1794.50 -1.60,1786.40"/>
    </edge>
    <edge id=":intersection_1_4_6" function="internal">
        <lane id=":intersection_1_4_6_0" index="0" speed="11.11" length="22.18" shape="-1.60,1813.60 -0.65,1804.15 2.20,1797.40 6.27,1793.93"/>
        <lane id=":intersection_1_4_6_1" index="1" speed="10.88" length="20.74" shape="-1.60,1813.60 -0.65,1805.55 2.20,1799.80 6.95,1796.35 7.29,1796.29"/>
        <lane id=":intersection_1_4_6_2" index="2" speed="10.36" length="21.49" shape="-1.60,1813.60 -0.65,1806.95 2.20,1802.20 6.95,1799.35 10.61,1798.83"/>
    </edge>
    <edge id=":intersection_1_4_36" function="internal">
        <lane id=":intersection_1_4_36_0" index="0" speed="11.11" length="7.68" shape="6.27,1793.93 6.95,1793.35 13.60,1792.00"/>
    </edge>
    <edge id=":intersection_1_4_37" function="internal">
        <lane id=":intersection_1_4_37_0" index="0" speed="10.88" length="6.40" shape="7.29,1796.29 13.60,1795.20"/>
    </edge>
    <edge id=":intersection_1_4_38" function="internal">
        <lane id=":intersection_1_4_38_0" index="0" speed="10.36" length="3.02" shape="10.61,1798.83 13.60,1798.40"/>
    </edge>
    <edge id=":intersection_1_4_9" function="internal">
        <lane id=":intersection_1_4_9_0" index="0" speed="6.51" length="9.03" shape="13.60,1808.00 11.15,1808.35 9.40,1809.40 8.35,1811.15 8.00,1813.60"/>
        <lane id=":intersection_1_4_9_1" index="1" speed="7.33" length="11.73" shape="13.60,1808.00 9.75,1808.35 7.00,1809.40 5.35,1811.15 4.80,1813.60"/>
        <lane id=":intersection_1_4_9_2" index="2" speed="8.10" length="14.57" shape="13.60,1808.00 8.35,1808.35 4.60,1809.40 2.35,1811.15 1.60,1813.60"/>
    </edge>
    <edge id=":intersection_1_4_12" function="internal">
        <lane id=":intersection_1_4_12_0" index="0" speed="11.11" length="27.37" shape="13.60,1804.80 5.50,1805.30 0.00,1806.40 -5.50,1807.50 -13.60,1808.00"/>
        <lane id=":intersection_1_4_12_1" index="1" speed="11.11" length="27.37" shape="13.60,1804.80 -13.60,1804.80"/>