<?xml version="1.0" encoding="UTF-8"?>

<!-- generated on 2021-05-27 23:55:00 by Eclipse SUMO netedit Version 1.9.1
<configuration xmlns:xsi="http://www.w3.org/2001/XMLSchema-instance" xsi:noNamespaceSchemaLocation="http://sumo.dlr.de/xsd/netconvertConfiguration.xsd">

    <input>
        <sumo-net-file value="C:\Users\James\Dropbox\MATraffic\environments\cologne3\cologne3.net.xml"/>
    </input>

    <output>
        <output-file value="C:\Users\James\Dropbox\MATraffic\environments\cologne3\cologne3.net.xml"/>
    </output>

    <processing>
        <geometry.min-radius.fix.railways value="false"/>
        <geometry.max-grade.fix value="false"/>
        <offset.disable-normalization value="true"/>
        <lefthand value="false"/>
    </processing>

    <junctions>
        <no-internal-links value="false"/>
        <no-turnarounds value="true"/>
        <junctions.corner-detail value="0"/>
        <junctions.limit-turn-speed value="-1"/>
        <rectangular-lane-cut value="false"/>
    </junctions>

    <pedestrian>
        <walkingareas value="false"/>
    </pedestrian>

    <report>
        <aggregate-warnings value="5"/>
    </report>

</configuration>
-->

<net version="1.9" xmlns:xsi="http://www.w3.org/2001/XMLSchema-instance" xsi:noNamespaceSchemaLocation="http://sumo.dlr.de/xsd/net_file.xsd">

    <location netOffset="-342498.65,-5630866.92" convBoundary="10307.97,12911.34,11217.44,13457.20" origBoundary="6.166558,50.735925,7.295276,51.840721" projParameter="+proj=utm +zone=32 +ellps=WGS84 +datum=WGS84 +units=m +no_defs"/>

    <type id="highway.bridleway" priority="1" numLanes="1" speed="2.78" allow="pedestrian" oneway="1" width="2.00"/>
    <type id="highway.bus_guideway" priority="1" numLanes="1" speed="13.89" allow="bus" oneway="1"/>
    <type id="highway.cycleway" priority="1" numLanes="1" speed="8.33" allow="bicycle" oneway="1" width="1.00"/>
    <type id="highway.footway" priority="1" numLanes="1" speed="2.78" allow="pedestrian" oneway="1" width="2.00"/>
    <type id="highway.ford" priority="1" numLanes="1" speed="2.78" allow="army" oneway="1"/>
    <type id="highway.living_street" priority="3" numLanes="1" speed="2.78" disallow="tram rail_urban rail rail_electric ship" oneway="1"/>
    <type id="highway.motorway" priority="13" numLanes="2" speed="27.78" allow="private emergency authority army vip passenger hov taxi bus coach delivery truck trailer motorcycle evehicle custom1 custom2" oneway="1"/>
    <type id="highway.motorway_link" priority="12" numLanes="1" speed="16.67" allow="private emergency authority army vip passenger hov taxi bus coach delivery truck trailer motorcycle evehicle custom1 custom2" oneway="1"/>
    <type id="highway.path" priority="1" numLanes="1" speed="2.78" allow="pedestrian bicycle" oneway="1" width="2.00"/>
    <type id="highway.pedestrian" priority="1" numLanes="1" speed="2.78" allow="pedestrian" oneway="1" width="2.00"/>
    <type id="highway.primary" priority="9" numLanes="2" speed="13.89" disallow="tram rail_urban rail rail_electric ship" oneway="1"/>
    <type id="highway.primary_link" priority="8" numLanes="1" speed="13.89" disallow="tram rail_urban rail rail_electric ship" oneway="1"/>
    <type id="highway.primary|railway.tram" priority="15" numLanes="2" speed="13.89" disallow="rail_urban rail rail_electric ship" oneway="1"/>
    <type id="highway.raceway" priority="14" numLanes="2" speed="83.33" allow="vip" oneway="1"/>
    <type id="highway.residential" priority="4" numLanes="1" speed="13.89" disallow="tram rail_urban rail rail_electric ship" oneway="1"/>
    <type id="highway.secondary" priority="7" numLanes="2" speed="13.89" disallow="tram rail_urban rail rail_electric ship" oneway="1"/>
    <type id="highway.secondary_link" priority="6" numLanes="1" speed="13.89" disallow="tram rail_urban rail rail_electric ship" oneway="1"/>
    <type id="highway.service" priority="2" numLanes="1" speed="5.56" allow="pedestrian delivery bicycle" oneway="1"/>
    <type id="highway.services" priority="1" numLanes="1" speed="8.33" disallow="tram rail_urban rail rail_electric ship" oneway="1"/>
    <type id="highway.service|railway.rail" priority="15" numLanes="1" speed="83.33" allow="pedestrian delivery bicycle rail rail_electric" oneway="1"/>
    <type id="highway.stairs" priority="1" numLanes="1" speed="1.39" allow="pedestrian" oneway="1" width="2.00"/>
    <type id="highway.step" priority="1" numLanes="1" speed="1.39" allow="pedestrian" oneway="1" width="2.00"/>
    <type id="highway.steps" priority="1" numLanes="1" speed="1.39" allow="pedestrian" oneway="1" width="2.00"/>
    <type id="highway.tertiary" priority="6" numLanes="1" speed="13.89" disallow="tram rail_urban rail rail_electric ship" oneway="1"/>
    <type id="highway.tertiary_link" priority="5" numLanes="1" speed="13.89" disallow="tram rail_urban rail rail_electric ship" oneway="1"/>
    <type id="highway.tertiary|railway.tram" priority="15" numLanes="1" speed="13.89" disallow="rail_urban rail rail_electric ship" oneway="1"/>
    <type id="highway.track" priority="1" numLanes="1" speed="5.56" disallow="tram rail_urban rail rail_electric ship" oneway="1"/>
    <type id="highway.trunk" priority="11" numLanes="2" speed="13.89" disallow="pedestrian bicycle tram rail_urban rail rail_electric ship" oneway="1"/>
    <type id="highway.trunk_link" priority="10" numLanes="1" speed="13.89" disallow="pedestrian bicycle tram rail_urban rail rail_electric ship" oneway="1"/>
    <type id="highway.unclassified" priority="5" numLanes="1" speed="13.89" disallow="tram rail_urban rail rail_electric ship" oneway="1"/>
    <type id="highway.unsurfaced" priority="1" numLanes="1" speed="8.33" disallow="tram rail_urban rail rail_electric ship" oneway="1"/>
    <type id="railway.light_rail" priority="15" numLanes="1" speed="27.78" allow="rail_urban" oneway="1"/>
    <type id="railway.preserved" priority="15" numLanes="1" speed="27.78" allow="rail" oneway="1"/>
    <type id="railway.rail" priority="15" numLanes="1" speed="83.33" allow="rail rail_electric" oneway="1"/>
    <type id="railway.subway" priority="15" numLanes="1" speed="27.78" allow="rail_urban" oneway="1"/>
    <type id="railway.tram" priority="15" numLanes="1" speed="13.89" allow="tram" oneway="1"/>

    <edge id=":276659756_0" function="internal">
        <lane id=":276659756_0_0" index="0" disallow="rail_urban rail rail_electric rail_fast ship" speed="13.89" length="4.67" shape="10452.31,12956.65 10451.72,12955.33 10451.80,12954.44 10452.57,12953.97 10454.01,12953.93"/>
    </edge>
    <edge id=":33202545_0" function="internal">
        <lane id=":33202545_0_0" index="0" disallow="tram rail_urban rail rail_electric rail_fast ship" speed="13.89" length="4.67" shape="10616.60,13412.09 10615.65,13413.17 10614.80,13413.47 10614.06,13412.96 10613.42,13411.67"/>
    </edge>
    <edge id=":33202546_0" function="internal">
        <lane id=":33202546_0_0" index="0" disallow="tram rail_urban rail rail_electric rail_fast ship" speed="13.89" length="4.67" shape="10673.15,13419.87 10672.14,13420.90 10671.28,13421.14 10670.57,13420.60 10670.01,13419.27"/>
    </edge>
    <edge id=":33202549_0" function="internal">
        <lane id=":33202549_0_0" index="0" disallow="tram rail_urban rail rail_electric rail_fast ship" speed="13.89" length="9.11" shape="10734.70,13128.88 10732.26,13127.86 10730.35,13128.02 10728.97,13129.35 10728.12,13131.84"/>
    </edge>
    <edge id=":33202549_1" function="internal">
        <lane id=":33202549_1_0" index="0" disallow="tram rail_urban rail rail_electric rail_fast ship" speed="13.89" length="14.83" shape="10734.70,13128.88 10721.93,13121.35"/>
        <lane id=":33202549_1_1" index="1" disallow="tram rail_urban rail rail_electric rail_fast ship" speed="13.89" length="14.83" shape="10736.33,13126.13 10723.55,13118.59"/>
    </edge>
    <edge id=":33202549_3" function="internal">
        <lane id=":33202549_3_0" index="0" disallow="tram rail_urban rail rail_electric rail_fast ship" speed="13.89" length="2.34" shape="10736.33,13126.13 10735.71,13124.83 10735.77,13123.94"/>
    </edge>
    <edge id=":33202549_11" function="internal">
        <lane id=":33202549_11_0" index="0" disallow="tram rail_urban rail rail_electric rail_fast ship" speed="13.89" length="2.34" shape="10735.77,13123.94 10736.53,13123.46 10737.97,13123.38"/>
    </edge>
    <edge id=":33202549_4" function="internal">
        <lane id=":33202549_4_0" index="0" disallow="tram rail_urban rail rail_electric rail_fast ship" speed="13.89" length="14.89" shape="10726.77,13113.06 10739.60,13120.63"/>
        <lane id=":33202549_4_1" index="1" disallow="tram rail_urban rail rail_electric rail_fast ship" speed="13.89" length="14.89" shape="10725.16,13115.82 10737.97,13123.38"/>
    </edge>
    <edge id=":33202549_6" function="internal">
        <lane id=":33202549_6_0" index="0" disallow="tram rail_urban rail rail_electric rail_fast ship" speed="13.89" length="4.44" shape="10725.16,13115.82 10727.37,13118.01 10727.83,13119.26"/>
    </edge>
    <edge id=":33202549_7" function="internal">
        <lane id=":33202549_7_0" index="0" disallow="tram rail_urban rail rail_electric rail_fast ship" speed="13.89" length="2.34" shape="10725.16,13115.82 10725.79,13117.12 10725.73,13118.01"/>
    </edge>
    <edge id=":33202549_12" function="internal">
        <lane id=":33202549_12_0" index="0" disallow="tram rail_urban rail rail_electric rail_fast ship" speed="13.89" length="12.78" shape="10727.83,13119.26 10728.61,13121.41 10728.85,13126.02 10728.12,13131.84"/>
    </edge>
    <edge id=":33202549_13" function="internal">
        <lane id=":33202549_13_0" index="0" disallow="tram rail_urban rail rail_electric rail_fast ship" speed="13.89" length="2.34" shape="10725.73,13118.01 10724.98,13118.50 10723.55,13118.59"/>
    </edge>
    <edge id=":33202549_8" function="internal">
        <lane id=":33202549_8_0" index="0" disallow="tram rail_urban rail rail_electric rail_fast ship" speed="13.89" length="11.06" shape="10724.98,13131.24 10725.31,13127.89 10724.91,13125.12 10723.79,13122.94 10721.93,13121.35"/>
    </edge>
    <edge id=":33202549_9" function="internal">
        <lane id=":33202549_9_0" index="0" disallow="tram rail_urban rail rail_electric rail_fast ship" speed="13.89" length="19.08" shape="10724.98,13131.24 10726.79,13125.50 10729.56,13122.28 10733.28,13121.57 10737.97,13123.38"/>
    </edge>
    <edge id=":33202549_10" function="internal">
        <lane id=":33202549_10_0" index="0" disallow="tram rail_urban rail rail_electric rail_fast ship" speed="13.89" length="4.67" shape="10724.98,13131.24 10725.99,13130.22 10726.85,13129.97 10727.56,13130.52 10728.12,13131.84"/>
    </edge>
    <edge id=":33251495_0" function="internal">
        <lane id=":33251495_0_0" index="0" disallow="tram rail_urban rail rail_electric rail_fast ship" speed="13.89" length="4.67" shape="10815.94,13319.37 10814.86,13320.32 10813.98,13320.51 10813.31,13319.92 10812.84,13318.55"/>
    </edge>
    <edge id=":359583_0" function="internal">
        <lane id=":359583_0_0" index="0" disallow="tram rail_urban rail rail_electric rail_fast ship" speed="13.89" length="17.59" shape="10517.97,13041.98 10518.76,13036.28 10519.29,13031.85 10519.55,13028.10 10519.55,13024.48"/>
    </edge>
    <edge id=":359583_1" function="internal">
        <lane id=":359583_1_0" index="0" disallow="tram rail_urban rail rail_electric rail_fast ship" speed="13.89" length="18.10" shape="10517.97,13041.98 10518.91,13036.75 10520.14,13033.28 10522.04,13030.07 10525.00,13025.59"/>
        <lane id=":359583_1_1" index="1" disallow="tram rail_urban rail rail_electric rail_fast ship" speed="13.89" length="17.42" shape="10521.14,13042.43 10522.07,13037.41 10523.31,13034.10 10525.20,13031.03 10528.08,13026.73"/>
    </edge>
    <edge id=":360082_0" function="internal">
        <lane id=":360082_0_0" index="0" disallow="tram rail_urban rail rail_electric rail_fast ship" speed="13.89" length="14.62" shape="11114.26,13350.27 11101.14,13343.76"/>
        <lane id=":360082_0_1" index="1" disallow="tram rail_urban rail rail_electric rail_fast ship" speed="13.89" length="14.62" shape="11115.66,13347.39 11102.58,13340.91"/>
    </edge>
    <edge id=":360082_2" function="internal">
        <lane id=":360082_2_0" index="0" disallow="tram rail_urban rail rail_electric rail_fast ship" speed="11.11" length="4.93" shape="11115.66,13347.39 11112.86,13345.18 11112.30,13343.94"/>
    </edge>
    <edge id=":360082_3" function="internal">
        <lane id=":360082_3_0" index="0" disallow="tram rail_urban rail rail_electric rail_fast ship" speed="13.89" length="2.34" shape="11115.66,13347.39 11114.93,13346.15 11114.92,13345.25"/>
    </edge>
    <edge id=":360082_11" function="internal">
        <lane id=":360082_11_0" index="0" disallow="tram rail_urban rail rail_electric rail_fast ship" speed="11.11" length="12.02" shape="11112.30,13343.94 11111.40,13341.92 11111.28,13337.61 11112.51,13332.25"/>
    </edge>
    <edge id=":360082_12" function="internal">
        <lane id=":360082_12_0" index="0" disallow="tram rail_urban rail rail_electric rail_fast ship" speed="13.89" length="2.34" shape="11114.92,13345.25 11115.63,13344.71 11117.06,13344.51"/>
    </edge>
    <edge id=":360082_4" function="internal">
        <lane id=":360082_4_0" index="0" disallow="tram rail_urban rail rail_electric rail_fast ship" speed="11.11" length="9.84" shape="11115.55,13333.23 11115.00,13336.03 11115.30,13338.36 11116.45,13340.23 11118.45,13341.63"/>
    </edge>
    <edge id=":360082_5" function="internal">
        <lane id=":360082_5_0" index="0" disallow="tram rail_urban rail rail_electric rail_fast ship" speed="11.11" length="17.76" shape="11115.55,13333.23 11113.26,13338.30 11110.34,13341.26 11106.78,13342.13 11102.58,13340.91"/>
    </edge>
    <edge id=":360082_6" function="internal">
        <lane id=":360082_6_0" index="0" disallow="tram rail_urban rail rail_electric rail_fast ship" speed="8.33" length="2.56" shape="11115.55,13333.23 11114.42,13334.13 11113.54,13334.26 11113.38,13334.11"/>
    </edge>
    <edge id=":360082_13" function="internal">
        <lane id=":360082_13_0" index="0" disallow="tram rail_urban rail rail_electric rail_fast ship" speed="8.33" length="2.11" shape="11113.38,13334.11 11112.90,13333.64 11112.51,13332.25"/>
    </edge>
    <edge id=":360082_7" function="internal">
        <lane id=":360082_7_0" index="0" disallow="tram rail_urban rail rail_electric rail_fast ship" speed="11.11" length="9.05" shape="11105.46,13335.19 11107.87,13336.00 11109.85,13335.78 11111.39,13334.53 11112.51,13332.25"/>
    </edge>
    <edge id=":360082_8" function="internal">
        <lane id=":360082_8_0" index="0" disallow="tram rail_urban rail rail_electric rail_fast ship" speed="13.89" length="14.52" shape="11105.46,13335.19 11118.45,13341.63"/>
        <lane id=":360082_8_1" index="1" disallow="tram rail_urban rail rail_electric rail_fast ship" speed="13.89" length="14.52" shape="11104.02,13338.05 11117.06,13344.51"/>
    </edge>
    <edge id=":360082_10" function="internal">
        <lane id=":360082_10_0" index="0" disallow="tram rail_urban rail rail_electric rail_fast ship" speed="13.89" length="2.34" shape="11104.02,13338.05 11104.73,13339.30 11104.73,13340.20"/>
    </edge>
    <edge id=":360082_14" function="internal">
        <lane id=":360082_14_0" index="0" disallow="tram rail_urban rail rail_electric rail_fast ship" speed="13.89" length="2.34" shape="11104.73,13340.20 11104.01,13340.73 11102.58,13340.91"/>
    </edge>
    <edge id=":360083_0" function="internal">
        <lane id=":360083_0_0" index="0" disallow="tram rail_urban rail rail_electric rail_fast ship" speed="13.89" length="10.69" shape="11009.24,13290.90 11000.04,13285.50"/>
        <lane id=":360083_0_1" index="1" disallow="tram rail_urban rail rail_electric rail_fast ship" speed="13.89" length="10.69" shape="11010.88,13288.15 11001.64,13282.73"/>
    </edge>
    <edge id=":360083_2" function="internal">
        <lane id=":360083_2_0" index="0" disallow="tram rail_urban rail rail_electric rail_fast ship" speed="11.11" length="2.85" shape="11010.88,13288.15 11009.85,13286.69 11009.74,13285.63"/>
    </edge>
    <edge id=":360083_3" function="internal">
        <lane id=":360083_3_0" index="0" disallow="tram rail_urban rail rail_electric rail_fast ship" speed="13.89" length="2.34" shape="11010.88,13288.15 11010.25,13286.85 11010.32,13285.96"/>
    </edge>
    <edge id=":360083_8" function="internal">
        <lane id=":360083_8_0" index="0" disallow="tram rail_urban rail rail_electric rail_fast ship" speed="11.11" length="10.99" shape="11009.74,13285.63 11009.59,13283.99 11010.10,13280.04 11011.37,13274.84"/>
    </edge>
    <edge id=":360083_9" function="internal">
        <lane id=":360083_9_0" index="0" disallow="tram rail_urban rail rail_electric rail_fast ship" speed="13.89" length="2.34" shape="11010.32,13285.96 11011.07,13285.48 11012.51,13285.40"/>
    </edge>
    <edge id=":360083_4" function="internal">
        <lane id=":360083_4_0" index="0" disallow="tram rail_urban rail rail_electric rail_fast ship" speed="11.11" length="8.44" shape="11004.86,13277.20 11007.14,13278.14 11008.99,13278.06 11010.40,13276.96 11011.37,13274.84"/>
    </edge>
    <edge id=":360083_5" function="internal">
        <lane id=":360083_5_0" index="0" disallow="tram rail_urban rail rail_electric rail_fast ship" speed="13.89" length="10.75" shape="11004.86,13277.20 11014.14,13282.65"/>
        <lane id=":360083_5_1" index="1" disallow="tram rail_urban rail rail_electric rail_fast ship" speed="13.89" length="10.75" shape="11003.25,13279.96 11012.51,13285.40"/>
    </edge>
    <edge id=":360083_7" function="internal">
        <lane id=":360083_7_0" index="0" disallow="tram rail_urban rail rail_electric rail_fast ship" speed="13.89" length="2.34" shape="11003.25,13279.96 11003.89,13281.26 11003.83,13282.15"/>
    </edge>
    <edge id=":360083_10" function="internal">
        <lane id=":360083_10_0" index="0" disallow="tram rail_urban rail rail_electric rail_fast ship" speed="13.89" length="2.34" shape="11003.83,13282.15 11003.08,13282.64 11001.64,13282.73"/>
    </edge>
    <edge id=":360084_0" function="internal">
        <lane id=":360084_0_0" index="0" disallow="tram rail_urban rail rail_electric rail_fast ship" speed="13.89" length="9.06" shape="10990.73,13280.10 10988.37,13279.14 10986.39,13279.26 10984.81,13280.45 10983.62,13282.70"/>
    </edge>
    <edge id=":360084_1" function="internal">
        <lane id=":360084_1_0" index="0" disallow="tram rail_urban rail rail_electric rail_fast ship" speed="13.89" length="14.49" shape="10990.73,13280.10 10978.21,13272.79"/>
        <lane id=":360084_1_1" index="1" disallow="tram rail_urban rail rail_electric rail_fast ship" speed="13.89" length="14.49" shape="10992.34,13277.33 10979.83,13270.03"/>
    </edge>
    <edge id=":360084_3" function="internal">
        <lane id=":360084_3_0" index="0" disallow="tram rail_urban rail rail_electric rail_fast ship" speed="13.89" length="2.34" shape="10992.34,13277.33 10991.71,13276.04 10991.76,13275.14"/>
    </edge>
    <edge id=":360084_11" function="internal">
        <lane id=":360084_11_0" index="0" disallow="tram rail_urban rail rail_electric rail_fast ship" speed="13.89" length="2.34" shape="10991.76,13275.14 10992.51,13274.65 10993.95,13274.56"/>
    </edge>
    <edge id=":360084_4" function="internal">
        <lane id=":360084_4_0" index="0" disallow="tram rail_urban rail rail_electric rail_fast ship" speed="13.89" length="14.46" shape="10983.07,13264.51 10995.56,13271.80"/>
        <lane id=":360084_4_1" index="1" disallow="tram rail_urban rail rail_electric rail_fast ship" speed="13.89" length="14.46" shape="10981.45,13267.27 10993.95,13274.56"/>
    </edge>
    <edge id=":360084_6" function="internal">
        <lane id=":360084_6_0" index="0" disallow="tram rail_urban rail rail_electric rail_fast ship" speed="13.89" length="4.74" shape="10981.45,13267.27 10983.97,13269.63 10984.40,13270.84"/>
    </edge>
    <edge id=":360084_7" function="internal">
        <lane id=":360084_7_0" index="0" disallow="tram rail_urban rail rail_electric rail_fast ship" speed="13.89" length="2.34" shape="10981.45,13267.27 10982.08,13268.57 10982.02,13269.46"/>
    </edge>
    <edge id=":360084_12" function="internal">
        <lane id=":360084_12_0" index="0" disallow="tram rail_urban rail rail_electric rail_fast ship" speed="13.89" length="12.18" shape="10984.40,13270.84 10985.17,13272.99 10985.05,13277.35 10983.62,13282.70"/>
    </edge>
    <edge id=":360084_13" function="internal">
        <lane id=":360084_13_0" index="0" disallow="tram rail_urban rail rail_electric rail_fast ship" speed="13.89" length="2.34" shape="10982.02,13269.46 10981.27,13269.95 10979.83,13270.03"/>
    </edge>
    <edge id=":360084_8" function="internal">
        <lane id=":360084_8_0" index="0" disallow="tram rail_urban rail rail_electric rail_fast ship" speed="13.89" length="10.04" shape="10980.61,13281.62 10981.28,13278.77 10981.10,13276.34 10980.08,13274.35 10978.21,13272.79"/>
    </edge>
    <edge id=":360084_9" function="internal">
        <lane id=":360084_9_0" index="0" disallow="tram rail_urban rail rail_electric rail_fast ship" speed="13.89" length="17.93" shape="10980.61,13281.62 10983.08,13276.58 10986.13,13273.73 10989.76,13273.05 10993.95,13274.56"/>
    </edge>
    <edge id=":360084_10" function="internal">
        <lane id=":360084_10_0" index="0" disallow="tram rail_urban rail rail_electric rail_fast ship" speed="13.89" length="4.67" shape="10980.61,13281.62 10981.76,13280.76 10982.65,13280.65 10983.27,13281.30 10983.62,13282.70"/>
    </edge>
    <edge id=":360085_0" function="internal">
        <lane id=":360085_0_0" index="0" disallow="tram rail_urban rail rail_electric rail_fast ship" speed="13.89" length="13.96" shape="10915.04,13235.18 10903.20,13227.93"/>
        <lane id=":360085_0_1" index="1" disallow="tram rail_urban rail rail_electric rail_fast ship" speed="13.89" length="13.96" shape="10916.78,13232.49 10904.81,13225.16"/>
    </edge>
    <edge id=":360085_2" function="internal">
        <lane id=":360085_2_0" index="0" disallow="tram rail_urban rail rail_electric rail_fast ship" speed="11.11" length="4.83" shape="10916.78,13232.49 10914.17,13229.92 10913.82,13228.81"/>
    </edge>
    <edge id=":360085_3" function="internal">
        <lane id=":360085_3_0" index="0" disallow="tram rail_urban rail rail_electric rail_fast ship" speed="13.89" length="2.34" shape="10916.78,13232.49 10916.21,13231.17 10916.31,13230.28"/>
    </edge>
    <edge id=":360085_11" function="internal">
        <lane id=":360085_11_0" index="0" disallow="tram rail_urban rail rail_electric rail_fast ship" speed="11.11" length="11.88" shape="10913.82,13228.81 10913.10,13226.55 10913.56,13222.39 10915.55,13217.45"/>
    </edge>
    <edge id=":360085_12" function="internal">
        <lane id=":360085_12_0" index="0" disallow="tram rail_urban rail rail_electric rail_fast ship" speed="13.89" length="2.34" shape="10916.31,13230.28 10917.08,13229.83 10918.52,13229.81"/>
    </edge>
    <edge id=":360085_4" function="internal">
        <lane id=":360085_4_0" index="0" disallow="tram rail_urban rail rail_electric rail_fast ship" speed="11.11" length="9.40" shape="10918.40,13218.92 10917.49,13221.39 10917.51,13223.59 10918.43,13225.50 10920.26,13227.12"/>
    </edge>
    <edge id=":360085_5" function="internal">
        <lane id=":360085_5_0" index="0" disallow="tram rail_urban rail rail_electric rail_fast ship" speed="11.11" length="17.14" shape="10918.40,13218.92 10915.44,13223.39 10912.19,13225.92 10908.64,13226.51 10904.81,13225.16"/>
    </edge>
    <edge id=":360085_6" function="internal">
        <lane id=":360085_6_0" index="0" disallow="tram rail_urban rail rail_electric rail_fast ship" speed="8.33" length="4.67" shape="10918.40,13218.92 10917.13,13219.61 10916.24,13219.60 10915.71,13218.88 10915.55,13217.45"/>
    </edge>
    <edge id=":360085_7" function="internal">
        <lane id=":360085_7_0" index="0" disallow="tram rail_urban rail rail_electric rail_fast ship" speed="11.11" length="9.04" shape="10908.03,13219.63 10910.34,13220.57 10912.37,13220.52 10914.10,13219.48 10915.55,13217.45"/>
    </edge>
    <edge id=":360085_8" function="internal">
        <lane id=":360085_8_0" index="0" disallow="tram rail_urban rail rail_electric rail_fast ship" speed="13.89" length="14.26" shape="10908.03,13219.63 10920.26,13227.12"/>
        <lane id=":360085_8_1" index="1" disallow="tram rail_urban rail rail_electric rail_fast ship" speed="13.89" length="14.26" shape="10906.42,13222.40 10918.52,13229.81"/>
    </edge>
    <edge id=":360085_10" function="internal">
        <lane id=":360085_10_0" index="0" disallow="tram rail_urban rail rail_electric rail_fast ship" speed="13.89" length="2.34" shape="10906.42,13222.40 10907.06,13223.69 10907.00,13224.59"/>
    </edge>
    <edge id=":360085_13" function="internal">
        <lane id=":360085_13_0" index="0" disallow="tram rail_urban rail rail_electric rail_fast ship" speed="13.89" length="2.34" shape="10907.00,13224.59 10906.25,13225.08 10904.81,13225.16"/>
    </edge>
    <edge id=":360086_0" function="internal">
        <lane id=":360086_0_0" index="0" disallow="tram rail_urban rail rail_electric rail_fast ship" speed="13.89" length="9.06" shape="10854.32,13199.45 10851.94,13198.48 10849.98,13198.61 10848.44,13199.83 10847.31,13202.14"/>
    </edge>
    <edge id=":360086_1" function="internal">
        <lane id=":360086_1_0" index="0" disallow="tram rail_urban rail rail_electric rail_fast ship" speed="13.89" length="17.06" shape="10854.32,13199.45 10839.60,13190.80"/>
        <lane id=":360086_1_1" index="1" disallow="tram rail_urban rail rail_electric rail_fast ship" speed="13.89" length="17.06" shape="10855.93,13196.68 10841.23,13188.04"/>
    </edge>
    <edge id=":360086_3" function="internal">
        <lane id=":360086_3_0" index="0" disallow="tram rail_urban rail rail_electric rail_fast ship" speed="11.11" length="6.16" shape="10855.93,13196.68 10852.40,13193.74 10851.70,13192.34"/>
    </edge>
    <edge id=":360086_4" function="internal">
        <lane id=":360086_4_0" index="0" disallow="tram rail_urban rail rail_electric rail_fast ship" speed="13.89" length="2.34" shape="10855.93,13196.68 10855.29,13195.39 10855.35,13194.49"/>
    </edge>
    <edge id=":360086_18" function="internal">
        <lane id=":360086_18_0" index="0" disallow="tram rail_urban rail rail_electric rail_fast ship" speed="11.11" length="12.76" shape="10851.70,13192.34 10850.52,13189.99 10850.28,13185.42 10851.68,13180.04"/>
    </edge>
    <edge id=":360086_19" function="internal">
        <lane id=":360086_19_0" index="0" disallow="tram rail_urban rail rail_electric rail_fast ship" speed="13.89" length="2.34" shape="10855.35,13194.49 10856.10,13194.00 10857.54,13193.92"/>
    </edge>
    <edge id=":360086_5" function="internal">
        <lane id=":360086_5_0" index="0" disallow="tram rail_urban rail rail_electric rail_fast ship" speed="11.11" length="12.04" shape="10854.67,13181.19 10854.08,13184.06 10854.64,13186.68 10856.33,13189.05 10859.15,13191.15"/>
    </edge>
    <edge id=":360086_6" function="internal">
        <lane id=":360086_6_0" index="0" disallow="tram rail_urban rail rail_electric rail_fast ship" speed="11.11" length="22.20" shape="10854.67,13181.19 10847.31,13202.14"/>
    </edge>
    <edge id=":360086_7" function="internal">
        <lane id=":360086_7_0" index="0" disallow="tram rail_urban rail rail_electric rail_fast ship" speed="11.11" length="7.28" shape="10854.67,13181.19 10852.09,13186.15 10850.84,13187.28"/>
    </edge>
    <edge id=":360086_8" function="internal">
        <lane id=":360086_8_0" index="0" disallow="tram rail_urban rail rail_electric rail_fast ship" speed="8.33" length="2.34" shape="10854.67,13181.19 10853.49,13182.02 10852.60,13182.11"/>
    </edge>
    <edge id=":360086_20" function="internal">
        <lane id=":360086_20_0" index="0" disallow="tram rail_urban rail rail_electric rail_fast ship" speed="11.11" length="10.57" shape="10850.84,13187.28 10848.99,13188.94 10845.37,13189.57 10841.23,13188.04"/>
    </edge>
    <edge id=":360086_21" function="internal">
        <lane id=":360086_21_0" index="0" disallow="tram rail_urban rail rail_electric rail_fast ship" speed="8.33" length="2.34" shape="10852.60,13182.11 10852.00,13181.45 10851.68,13180.04"/>
    </edge>
    <edge id=":360086_9" function="internal">
        <lane id=":360086_9_0" index="0" disallow="tram rail_urban rail rail_electric rail_fast ship" speed="11.11" length="9.05" shape="10844.50,13182.54 10846.85,13183.51 10848.83,13183.42 10850.44,13182.26 10851.68,13180.04"/>
    </edge>
    <edge id=":360086_10" function="internal">
        <lane id=":360086_10_0" index="0" disallow="tram rail_urban rail rail_electric rail_fast ship" speed="13.89" length="17.01" shape="10844.50,13182.54 10859.15,13191.15"/>
        <lane id=":360086_10_1" index="1" disallow="tram rail_urban rail rail_electric rail_fast ship" speed="13.89" length="17.01" shape="10842.87,13185.29 10857.54,13193.92"/>
    </edge>
    <edge id=":360086_12" function="internal">
        <lane id=":360086_12_0" index="0" disallow="tram rail_urban rail rail_electric rail_fast ship" speed="13.89" length="5.94" shape="10842.87,13185.29 10846.24,13188.18 10846.91,13189.52"/>
    </edge>
    <edge id=":360086_13" function="internal">
        <lane id=":360086_13_0" index="0" disallow="tram rail_urban rail rail_electric rail_fast ship" speed="13.89" length="2.34" shape="10842.87,13185.29 10843.49,13186.59 10843.43,13187.48"/>
    </edge>
    <edge id=":360086_22" function="internal">
        <lane id=":360086_22_0" index="0" disallow="tram rail_urban rail rail_electric rail_fast ship" speed="13.89" length="13.03" shape="10846.91,13189.52 10848.11,13191.95 10848.47,13196.61 10847.31,13202.14"/>
    </edge>