<?xml version="1.0" encoding="UTF-8"?>
<!-- generated on 2021-05-27 23:52:05.804645 by cutRoutes.py v1_9_1+0000-7ec6471b6c
  options: .\cologne3.net.xml .\cologne_routes.xml -o cologne3.rou.xml <doubleminus>orig-net .\cologne.net.xml <doubleminus>big
-->
<routes xmlns:xsi="http://www.w3.org/2001/XMLSchema-instance" xsi:noNamespaceSchemaLocation="http://sumo.dlr.de/xsd/routes_file.xsd">
	<vType id="pkw" vClass="passenger" speedDev="0.1" length="4.3" minGap="1.5"/>
    <vehicle arrival="25291.00" depart="23512.00" id="64428_378_0" type="pkw">
        <route edges="-5229966#3 319261593#15 319261593#16 4145590#0"/>
    </vehicle>
    <vehicle arrival="24886.00" depart="23517.00" id="57162_374_0" type="pkw">
        <route edges="-5229966#3 319261593#15 319261593#16 4145590#0"/>
    </vehicle>
    <vehicle arrival="23940.00" depart="23520.00" id="93522_392_0" type="pkw">
        <route edges="-241660955#17 -241660955#16 -241660955#13 -241660955#12 -241660955#10 -241660955#9 -241660955#6 -241660955#5 -241660955#3 -200818108#1 -31864804"/>
    </vehicle>
    <vehicle arrival="24157.00" depart="23520.00" id="99565_396_0" type="pkw">
        <route edges="241660957#0 4999331#0"/>
    </vehicle>
    <vehicle arrival="24224.00" depart="23522.00" id="73115_384_0" type="pkw">
        <route edges="41910184 241660955#13 241660955#14 241660955#17"/>
    </vehicle>
    <vehicle arrival="24507.00" depart="23523.00" id="90815_391_0" type="pkw">
        <route edges="241660955#6 -241660955#6 -4999334"/>
    </vehicle>
    <vehicle arrival="25292.00" depart="23523.00" id="89835_391_0" type="pkw">
        <route edges="-241660955#17 -241660955#16 -241660955#13 -41910184"/>
    </vehicle>
    <vehicle arrival="24292.00" depart="23525.00" id="83314_390_0" type="pkw">
        <route edges="319261593#12 319261593#15 8197886#0 200818108#0 4145590#0"/>
    </vehicle>
    <vehicle arrival="23594.00" depart="23526.00" id="59960_376_0" type="pkw">
        <route edges="-241660955#17 -241660955#16 4145589#0"/>
    </vehicle>
    <vehicle arrival="23709.00" depart="23526.00" id="84472_390_0" type="pkw">
        <route edges="241660957#0 4999331#0"/>
    </vehicle>
    <vehicle arrival="23766.00" depart="23526.00" id="59979_376_0" type="pkw">
        <route edges="319261593#12 319261593#15 8197886#0 -31864804"/>
    </vehicle>
    <vehicle arrival="23690.00" depart="23527.00" id="66700_380_0" type="pkw">
        <route edges="41910184 241660955#13 241660955#14 130160207#0"/>
    </vehicle>
    <vehicle arrival="25434.00" depart="23528.00" id="102115_396_0" type="pkw">
        <route edges="-241660955#17 -241660955#16 -241660955#13 -41910184"/>
    </vehicle>
    <vehicle arrival="24191.00" depart="23531.00" id="87950_391_0" type="pkw">
        <route edges="31864804 200818108#0 4145590#0"/>
    </vehicle>
    <vehicle arrival="24382.00" depart="23532.00" id="100153_396_0" type="pkw">
        <route edges="41910184 241660955#13 4145589#0"/>
    </vehicle>
    <vehicle arrival="23631.00" depart="23536.00" id="81482_389_0" type="pkw">
        <route edges="31864804 200818108#0 241660955#0 241660955#4 241660955#6 241660955#7 241660955#10 -4045330"/>
    </vehicle>
    <vehicle arrival="23715.00" depart="23536.00" id="71137_382_0" type="pkw">
        <route edges="241660957#0 4999331#0"/>
    </vehicle>
    <vehicle arrival="23905.00" depart="23536.00" id="79021_387_0" type="pkw">
        <route edges="41910186 -241660955#3 4145590#0"/>
    </vehicle>
    <vehicle arrival="23694.00" depart="23537.00" id="73894_385_0" type="pkw">
        <route edges="-241660955#17 -241660955#16 -241660955#13 -41910184"/>
    </vehicle>
    <vehicle arrival="23653.00" depart="23538.00" id="73170_384_0" type="pkw">
        <route edges="241660957#0 4999331#0"/>
    </vehicle>
    <vehicle arrival="24032.00" depart="23539.00" id="87995_391_0" type="pkw">
        <route edges="41910184 241660955#13 241660955#14 241660955#17"/>
    </vehicle>
    <vehicle arrival="23605.00" depart="23540.00" id="81168_389_0" type="pkw">
        <route edges="-41910185#2 241660955#10 241660955#11 -41910184"/>
    </vehicle>
    <vehicle arrival="31505.00" depart="23540.00" id="54426_371_0" type="pkw">
        <route edges="319261593#12 319261593#15 319261593#16 4145590#0"/>
    </vehicle>
    <vehicle arrival="23675.00" depart="23542.00" id="49531_367_0" type="pkw">
        <route edges="319261593#12 319261593#15 319261593#16 4145590#0"/>
    </vehicle>
    <vehicle arrival="24421.00" depart="23542.00" id="77650_386_0" type="pkw">
        <route edges="241660957#0 4999331#0"/>
    </vehicle>
    <vehicle arrival="24082.00" depart="23553.00" id="80144_388_0" type="pkw">
        <route edges="-41910185#2 -241660955#9 -241660955#6 -241660955#5 -241660955#3 -200818108#1 -31864804"/>
    </vehicle>
    <vehicle arrival="24330.00" depart="23555.00" id="88840_391_0" type="pkw">
        <route edges="31864804 200818108#0 241660955#0 241660955#4 241660955#6 241660955#7 241660955#10 241660955#11 241660955#13 241660955#14 241660955#17"/>
    </vehicle>
    <vehicle arrival="24346.00" depart="23555.00" id="93238_392_0" type="pkw">
        <route edges="-241660955#17 -241660955#16 -241660955#13 -41910184"/>
    </vehicle>
    <vehicle arrival="24775.00" depart="23555.00" id="87338_391_0" type="pkw">
        <route edges="41910186 -241660955#3 4145590#0"/>
    </vehicle>
    <vehicle arrival="23982.00" depart="23558.00" id="65566_379_0" type="pkw">
        <route edges="-241660955#17 -241660955#16 -241660955#13 -241660955#12 -241660955#10 -241660955#9 -241660955#6 -241660955#5 -241660955#3 -200818108#1 -31864804"/>
    </vehicle>
    <vehicle arrival="23923.00" depart="23559.00" id="83680_390_0" type="pkw">
        <route edges="31864804 200818108#0 241660955#0 241660955#4 241660955#6 241660955#7 241660955#10 241660955#11 241660955#13 241660955#14 241660955#17"/>
    </vehicle>
    <vehicle arrival="23719.00" depart="23560.00" id="78641_387_0" type="pkw">
        <route edges="241660955#4 241660955#6 4045332#0"/>
    </vehicle>
    <vehicle arrival="26755.00" depart="23560.00" id="59495_375_0" type="pkw">
        <route edges="-5229966#3 319261593#15 319261593#16 241660955#0 241660955#4 -4999334"/>
    </vehicle>
    <vehicle arrival="24222.00" depart="23561.00" id="82510_389_0" type="pkw">
        <route edges="-241660955#17 -241660955#16 -241660955#13 -41910184"/>
    </vehicle>
    <vehicle arrival="24590.00" depart="23566.00" id="95411_394_0" type="pkw">
        <route edges="4045330 241660955#11 241660955#13 241660955#14 241660955#17"/>
    </vehicle>
    <vehicle arrival="24672.00" depart="23569.00" id="96311_394_0" type="pkw">
        <route edges="241660955#4 241660955#6 241660955#7 241660955#10 241660955#11 241660955#13 241660955#14 241660955#17"/>
    </vehicle>
    <vehicle arrival="24407.00" depart="23571.00" id="77252_386_0" type="pkw">
        <route edges="-130160207#0 -241660955#16 -241660955#13 -41910184"/>
    </vehicle>
    <vehicle arrival="23950.00" depart="23572.00" id="91779_392_0" type="pkw">
        <route edges="-41910185#2 -4045329#5"/>
    </vehicle>
    <vehicle arrival="23790.00" depart="23575.00" id="87924_391_0" type="pkw">
        <route edges="241660957#0 4999331#0"/>
    </vehicle>
    <vehicle arrival="23905.00" depart="23576.00" id="70727_382_0" type="pkw">
        <route edges="-5229966#3 319261593#15 319261593#16 4145590#0"/>
    </vehicle>
    <vehicle arrival="23825.00" depart="23577.00" id="76113_386_0" type="pkw">
        <route edges="-5229966#3 319261593#15 319261593#16 4145590#0"/>
    </vehicle>
    <vehicle arrival="23893.00" depart="23577.00" id="91586_392_0" type="pkw">
        <route edges="4999334 -241660955#5 -241660955#3 4145590#0"/>
    </vehicle>
    <vehicle arrival="23643.00" depart="23579.00" id="60370_376_0" type="pkw">
        <route edges="-31800061#0 -41910186"/>
    </vehicle>
    <vehicle arrival="23812.00" depart="23579.00" id="91737_392_0" type="pkw">
        <route edges="-241660955#17 -241660955#16 -241660955#13 -241660955#12 -241660955#10 -241660955#9 -241660955#6 -241660955#5 -241660955#3 -200818108#1 -31864804"/>
    </vehicle>
    <vehicle arrival="23907.00" depart="23579.00" id="61413_376_0" type="pkw">
        <route edges="-5229966#3 319261593#15 319261593#16 4145590#0"/>
    </vehicle>
    <vehicle arrival="23633.00" depart="23581.00" id="80728_388_0" type="pkw">
        <route edges="41910184 -241660955#12 -4045330"/>
    </vehicle>
    <vehicle arrival="23650.00" depart="23581.00" id="80128_388_0" type="pkw">
        <route edges="-241660955#17 -241660955#16 -241660955#13 -241660955#12 -241660955#10 -4045329#5"/>
    </vehicle>
    <vehicle arrival="24719.00" depart="23582.00" id="91090_391_0" type="pkw">
        <route edges="4045329#5 -241660955#9 -241660955#6 -241660955#5 31800061#0"/>
    </vehicle>
    <vehicle arrival="25565.00" depart="23582.00" id="77891_386_0" type="pkw">
        <route edges="41910186 -241660955#3 4145590#0"/>
    </vehicle>
    <vehicle arrival="23626.00" depart="23583.00" id="83143_390_0" type="pkw">
        <route edges="-241660955#17 -241660955#16 -241660955#13 -241660955#12"/>
    </vehicle>
    <vehicle arrival="24217.00" depart="23583.00" id="91637_392_0" type="pkw">
        <route edges="241660957#0 4999331#0"/>
    </vehicle>
    <vehicle arrival="23727.00" depart="23585.00" id="68702_381_0" type="pkw">
        <route edges="41910184 241660955#13 241660955#14 130160207#0"/>
    </vehicle>
    <vehicle arrival="25225.00" depart="23587.00" id="75389_386_0" type="pkw">
        <route edges="-5229966#3 319261593#15 8197886#0 200818108#0 4145590#0"/>
    </vehicle>
    <vehicle arrival="23924.00" depart="23589.00" id="89490_391_0" type="pkw">
        <route edges="241660957#0 4999331#0"/>
    </vehicle>
    <vehicle arrival="24623.00" depart="23591.00" id="83181_390_0" type="pkw">
        <route edges="319261593#12 319261593#15 319261593#16 4145590#0"/>
    </vehicle>
    <vehicle arrival="24039.00" depart="23593.00" id="78550_387_0" type="pkw">
        <route edges="-41910185#2 241660955#10 241660955#11 241660955#13 241660955#14 241660955#17"/>
    </vehicle>
    <vehicle arrival="24438.00" depart="23593.00" id="68590_381_0" type="pkw">
        <route edges="41910184 241660955#13 241660955#14 241660955#17"/>
    </vehicle>
    <vehicle arrival="24087.00" depart="23595.00" id="103619_397_0" type="pkw">
        <route edges="319261593#12 319261593#15 319261593#16 4145590#0"/>
    </vehicle>
    <vehicle arrival="23739.00" depart="23597.00" id="94822_393_0" type="pkw">
        <route edges="241660957#0 4999331#0"/>
    </vehicle>
    <vehicle arrival="24076.00" depart="23598.00" id="80524_388_0" type="pkw">
        <route edges="-130160207#0 -241660955#16 -241660955#13 -41910184"/>
    </vehicle>
    <vehicle arrival="24558.00" depart="23598.00" id="77711_386_0" type="pkw">
        <route edges="41910184 241660955#13 241660955#14 241660955#17"/>
    </vehicle>
    <vehicle arrival="26875.00" depart="23602.00" id="86478_391_0" type="pkw">
        <route edges="319261593#12 319261593#15 319261593#16 241660955#0 241660955#4 241660955#6 241660955#7 241660955#10 241660955#11 241660955#13 241660955#14 241660955#17"/>
    </vehicle>
    <vehicle arrival="23648.00" depart="23607.00" id="66585_380_0" type="pkw">
        <route edges="31864804 200818108#0 4145590#0"/>
    </vehicle>
    <vehicle arrival="23937.00" depart="23615.00" id="68967_381_0" type="pkw">
        <route edges="-5229966#3 319261593#15 319261593#16 4145590#0"/>
    </vehicle>
    <vehicle arrival="24085.00" depart="23615.00" id="90155_391_0" type="pkw">
        <route edges="4999334 -241660955#5 -241660955#3 -200818108#1 -31864804"/>
    </vehicle>
    <vehicle arrival="24955.00" depart="23617.00" id="102218_396_0" type="pkw">
        <route edges="-5229966#3 319261593#15 319261593#16 241660955#0 241660955#4 241660955#6 241660955#7 241660955#10 241660955#11 241660955#13 241660955#14 241660955#17"/>
    </vehicle>
    <vehicle arrival="25060.00" depart="23617.00" id="101730_396_0" type="pkw">
        <route edges="-41910185#2 241660955#10 241660955#11 241660955#13 241660955#14 241660955#17"/>
    </vehicle>
    <vehicle arrival="24892.00" depart="23620.00" id="87669_391_0" type="pkw">
        <route edges="4145589#0"/>
    </vehicle>
    <vehicle arrival="25047.00" depart="23620.00" id="88689_391_0" type="pkw">
        <route edges="31864804 200818108#0 241660955#0 241660955#4 241660955#6 241660955#7 241660955#10 241660955#11 241660955#13 241660955#14 241660955#17"/>
    </vehicle>
    <vehicle arrival="24666.00" depart="23621.00" id="103450_397_0" type="pkw">
        <route edges="41910184 241660955#13 241660955#14 241660955#17"/>
    </vehicle>
    <vehicle arrival="23833.00" depart="23623.00" id="66867_380_0" type="pkw">
        <route edges="-241660955#17 -241660955#16 -241660955#13 -241660955#12 -241660955#10 -241660955#9 -241660955#6 -241660955#5 -241660955#3 -200818108#1 -31864804"/>
    </vehicle>
    <vehicle arrival="23681.00" depart="23624.00" id="78271_386_0" type="pkw">
        <route edges="-130160207#0 241660955#17"/>
    </vehicle>
    <vehicle arrival="23701.00" depart="23624.00" id="101412_396_0" type="pkw">
        <route edges="319261593#12 319261593#15 319261593#16 4145590#0"/>
    </vehicle>
    <vehicle arrival="23848.00" depart="23624.00" id="79723_387_0" type="pkw">
        <route edges="-241660955#17 -241660955#16 -241660955#13 -41910184"/>
    </vehicle>
    <vehicle arrival="23755.00" depart="23626.00" id="74976_386_0" type="pkw">
        <route edges="319261593#12 319261593#15 8197886#0 -31864804"/>
    </vehicle>
    <vehicle arrival="25214.00" depart="23633.00" id="84461_390_0" type="pkw">
        <route edges="241660955#0 241660955#4 241660955#6 241660955#7 241660955#10 241660955#11 241660955#13 241660955#14 241660955#17"/>
    </vehicle>
    <vehicle arrival="23813.00" depart="23634.00" id="56290_373_0" type="pkw">
        <route edges="31864804 200818108#0 4999331#0"/>
    </vehicle>
    <vehicle arrival="23695.00" depart="23635.00" id="57097_374_0" type="pkw">
        <route edges="-241660955#17 -241660955#16 4145589#0"/>
    </vehicle>
    <vehicle arrival="23767.00" depart="23637.00" id="92651_392_0" type="pkw">
        <route edges="-241660955#17 -241660955#16 -241660955#13 -241660955#12 -241660955#10 -241660955#9 -241660955#6 -241660955#5 -241660955#3 -200818108#1 -31864804"/>
    </vehicle>
    <vehicle arrival="24009.00" depart="23640.00" id="76328_386_0" type="pkw">
        <route edges="-241660955#17 -241660955#16 -241660955#13 -241660955#12 -241660955#10 -241660955#9 -241660955#6 -241660955#5 -241660955#3 -200818108#1 -31864804"/>
    </vehicle>
    <vehicle arrival="23738.00" depart="23643.00" id="94529_393_0" type="pkw">
        <route edges="-5229966#3 319261593#15 319261593#16 4145590#0"/>
    </vehicle>
    <vehicle arrival="24006.00" depart="23643.00" id="107146_400_0" type="pkw">
        <route edges="-241660955#17 -241660955#16 -241660955#13 -41910184"/>
    </vehicle>
    <vehicle arrival="23675.00" depart="23645.00" id="67342_380_0" type="pkw">
        <route edges="31864804 -31864804"/>
    </vehicle>
    <vehicle arrival="24070.00" depart="23645.00" id="67449_381_0" type="pkw">
        <route edges="241660957#0 4999331#0"/>
    </vehicle>
    <vehicle arrival="24115.00" depart="23645.00" id="73044_384_0" type="pkw">
        <route edges="-241660955#17 -241660955#16 -241660955#13 -41910184"/>
    </vehicle>
    <vehicle arrival="23765.00" depart="23649.00" id="97817_395_0" type="pkw">
        <route edges="41910186 31800061#0"/>
    </vehicle>
    <vehicle arrival="23783.00" depart="23652.00" id="64988_379_0" type="pkw">
        <route edges="241660957#0 4999331#0"/>
    </vehicle>
    <vehicle arrival="23938.00" depart="23652.00" id="78154_386_0" type="pkw">
        <route edges="31864804 200818108#0 4999331#0"/>
    </vehicle>
    <vehicle arrival="23858.00" depart="23654.00" id="75439_386_0" type="pkw">
        <route edges="-5229966#3 319261593#15 319261593#16 4145590#0"/>
    </vehicle>
    <vehicle arrival="24254.00" depart="23654.00" id="59915_376_0" type="pkw">
        <route edges="-241660955#17 -241660955#16 -241660955#13 -241660955#12 -241660955#10 -241660955#9 -241660955#6 -241660955#5 -241660955#3 -200818108#1 -31864804"/>
    </vehicle>
    <vehicle arrival="23896.00" depart="23655.00" id="64960_379_0" type="pkw">
        <route edges="319261593#12 319261593#15 8197886#0 200818108#0 4145590#0"/>
    </vehicle>
    <vehicle arrival="23722.00" depart="23656.00" id="100489_396_0" type="pkw">
        <route edges="-241660955#17 -241660955#16 4145589#0"/>
    </vehicle>
    <vehicle arrival="23840.00" depart="23656.00" id="92649_392_0" type="pkw">
        <route edges="4999334 241660955#6 241660955#7 241660955#10 241660955#11 241660955#13 241660955#14 241660955#17"/>
    </vehicle>
    <vehicle arrival="24526.00" depart="23656.00" id="87091_391_0" type="pkw">
        <route edges="319261593#12 319261593#15 319261593#16 4145590#0"/>
    </vehicle>
    <vehicle arrival="23799.00" depart="23657.00" id="92792_392_0" type="pkw">
        <route edges="241660957#0 4999331#0"/>
    </vehicle>
    <vehicle arrival="23708.00" depart="23659.00" id="57989_375_0" type="pkw">
        <route edges="319261593#12 319261593#15 319261593#16 4145590#0"/>
    </vehicle>
    <vehicle arrival="23824.00" depart="23659.00" id="89113_391_0" type="pkw">
        <route edges="241660957#0 4999331#0"/>
    </vehicle>
    <vehicle arrival="24042.00" depart="23659.00" id="82294_389_0" type="pkw">
        <route edges="-241660955#17 -241660955#16 -241660955#13 -41910184"/>
    </vehicle>
    <vehicle arrival="23930.00" depart="23661.00" id="95965_394_0" type="pkw">
        <route edges="31864804 200818108#0 4999331#0"/>
    </vehicle>
    <vehicle arrival="24017.00" depart="23661.00" id="91342_391_0" type="pkw">
        <route edges="-41910185#2 -4045329#5"/>
    </vehicle>
    <vehicle arrival="23830.00" depart="23663.00" id="97128_395_0" type="pkw">
        <route edges="-241660955#17 -241660955#16 -241660955#13 -241660955#12 -241660955#10 -241660955#9 -241660955#6 -241660955#5 -241660955#3 4145590#0"/>
    </vehicle>
    <vehicle arrival="24904.00" depart="23663.00" id="92407_392_0" type="pkw">
        <route edges="4999334 241660955#6 241660955#7 241660955#10 241660955#11 241660955#13 241660955#14 241660955#17"/>
    </vehicle>
    <vehicle arrival="24453.00" depart="23670.00" id="63770_377_0" type="pkw">
        <route edges="41910184 241660955#13 241660955#14 241660955#17"/>
    </vehicle>
    <vehicle arrival="24396.00" depart="23672.00" id="60506_376_0" type="pkw">
        <route edges="41910184 241660955#13 241660955#14 241660955#17"/>
    </vehicle>
    <vehicle arrival="24082.00" depart="23674.00" id="95355_394_0" type="pkw">
        <route edges="241660957#0 4999331#0"/>
    </vehicle>
    <vehicle arrival="24148.00" depart="23674.00" id="69939_382_0" type="pkw">
        <route edges="-241660955#17 -241660955#16 -241660955#13 -41910184"/>
    </vehicle>
    <vehicle arrival="24036.00" depart="23675.00" id="80681_388_0" type="pkw">
        <route edges="31864804 200818108#0 4999331#0"/>
    </vehicle>
    <vehicle arrival="24626.00" depart="23675.00" id="58612_375_0" type="pkw">
        <route edges="41910184 241660955#13 241660955#14 241660955#17"/>
    </vehicle>
    <vehicle arrival="23772.00" depart="23676.00" id="70564_382_0" type="pkw">
        <route edges="-5229966#3 319261593#15 319261593#16 241660955#0 241660955#4 -4999334"/>
    </vehicle>
    <vehicle arrival="23868.00" depart="23676.00" id="95812_394_0" type="pkw">
        <route edges="-241660955#17 -241660955#16 -241660955#13 -241660955#12 -241660955#10 -241660955#9 -241660955#6 -241660955#5 -241660955#3 -200818108#1 -31864804"/>
    </vehicle>
    <vehicle arrival="24261.00" depart="23677.00" id="74721_385_0" type="pkw">
        <route edges="41910184 241660955#13 241660955#14 241660955#17"/>
    </vehicle>
    <vehicle arrival="23767.00" depart="23678.00" id="74639_385_0" type="pkw">
        <route edges="-5229966#3 319261593#15 319261593#16 241660955#0 -41910186"/>
    </vehicle>
    <vehicle arrival="23793.00" depart="23678.00" id="62686_377_0" type="pkw">
        <route edges="241660957#0 4999331#0"/>
    </vehicle>
    <vehicle arrival="24349.00" depart="23678.00" id="103028_397_0" type="pkw">
        <route edges="241660957#0 4999331#0"/>
    </vehicle>
    <vehicle arrival="24093.00" depart="23681.00" id="56988_374_0" type="pkw">
        <route edges="31864804 200818108#0 4999331#0"/>
    </vehicle>
    <vehicle arrival="23996.00" depart="23683.00" id="86393_391_0" type="pkw">
        <route edges="31864804 200818108#0 4999331#0"/>
    </vehicle>
    <vehicle arrival="24035.00" depart="23688.00" id="66245_380_0" type="pkw">
        <route edges="241660957#0 4999331#0"/>
    </vehicle>
    <vehicle arrival="24603.00" depart="23692.00" id="111742_401_0" type="pkw">
        <route edges="241660955#4 241660955#6 241660955#7 241660955#10 241660955#11 241660955#13 241660955#14 241660955#17"/>
    </vehicle>
    <vehicle arrival="24300.00" depart="23694.00" id="96714_395_0" type="pkw">
        <route edges="241660957#0 4999331#0"/>
    </vehicle>
    <vehicle arrival="23718.00" depart="23695.00" id="73563_385_0" type="pkw">
        <route edges="31864804 200818108#0 4145590#0"/>
    </vehicle>
    <vehicle arrival="24312.00" depart="23697.00" id="78388_387_0" type="pkw">
        <route edges="31864804 200818108#0 241660955#0 241660955#4 -4999334"/>
    </vehicle>
    <vehicle arrival="23780.00" depart="23698.00" id="102469_396_0" type="pkw">
        <route edges="-31800061#0 241660955#4 -4999334"/>
    </vehicle>
    <vehicle arrival="23922.00" depart="23698.00" id="85893_391_0" type="pkw">
        <route edges="-5229966#3 319261593#15 319261593#16 4145590#0"/>
    </vehicle>
    <vehicle arrival="24082.00" depart="23698.00" id="77551_386_0" type="pkw">
        <route edges="241660957#0 4999331#0"/>
    </vehicle>
    <vehicle arrival="24183.00" depart="23699.00" id="81364_389_0" type="pkw">
        <route edges="31864804 200818108#0 241660955#0 241660955#4 -4999334"/>
    </vehicle>
    <vehicle arrival="24946.00" depart="23700.00" id="86398_391_0" type="pkw">
        <route edges="31864804 200818108#0 241660955#0 241660955#4 241660955#6 241660955#7 241660955#10 241660955#11 241660955#13 241660955#14 241660955#17"/>
    </vehicle>
    <vehicle arrival="23773.00" depart="23702.00" id="99494_396_0" type="pkw">
        <route edges="-31800061#0 -41910186"/>
    </vehicle>
    <vehicle arrival="25480.00" depart="23702.00" id="91567_392_0" type="pkw">
        <route edges="31864804 200818108#0 241660955#0 241660955#4 -4999334"/>
    </vehicle>
    <vehicle arrival="24048.00" depart="23704.00" id="98386_395_0" type="pkw">
        <route edges="241660957#0 4999331#0"/>
    </vehicle>
    <vehicle arrival="25345.00" depart="23704.00" id="82004_389_0" type="pkw">
        <route edges="41910184 241660955#13 241660955#14 241660955#17"/>
    </vehicle>
    <vehicle arrival="24422.00" depart="23705.00" id="100788_396_0" type="pkw">
        <route edges="319261593#12 319261593#15 319261593#16 4145590#0"/>
    </vehicle>
    <vehicle arrival="24214.00" depart="23707.00" id="89578_391_0" type="pkw">
        <route edges="319261593#12 319261593#15 319261593#16 4145590#0"/>
    </vehicle>
    <vehicle arrival="23804.00" depart="23708.00" id="72740_384_0" type="pkw">
        <route edges="-5229966#3 319261593#15 319261593#16 241660955#0 241660955#4 -4999334"/>
    </vehicle>
    <vehicle arrival="24296.00" depart="23709.00" id="77600_386_0" type="pkw">
        <route edges="31864804 200818108#0 4999331#0"/>
    </vehicle>
    <vehicle arrival="26514.00" depart="23709.00" id="103558_397_0" type="pkw">
        <route edges="31864804 200818108#0 241660955#0 241660955#4 241660955#6 241660955#7 241660955#10 241660955#11 241660955#13 241660955#14 241660955#17"/>
    </vehicle>
    <vehicle arrival="23810.00" depart="23710.00" id="62969_377_0" type="pkw">
        <route edges="-130160207#0 241660955#17"/>
    </vehicle>
    <vehicle arrival="23895.00" depart="23711.00" id="64979_379_0" type="pkw">
        <route edges="319261593#12 319261593#15 319261593#16 4145590#0"/>
    </vehicle>
    <vehicle arrival="24110.00" depart="23711.00" id="104303_397_0" type="pkw">
        <route edges="31864804 200818108#0 4999331#0"/>
    </vehicle>
    <vehicle arrival="23758.00" depart="23712.00" id="87249_391_0" type="pkw">
        <route edges="319261593#12 319261593#15 8197886#0 -31864804"/>
    </vehicle>
    <vehicle arrival="23934.00" depart="23712.00" id="67630_381_0" type="pkw">
        <route edges="-5229966#3 319261593#15 319261593#16 4145590#0"/>
    </vehicle>
    <vehicle arrival="23866.00" depart="23713.00" id="103216_397_0" type="pkw">
        <route edges="241660957#0 4999331#0"/>
    </vehicle>
    <vehicle arrival="23896.00" depart="23714.00" id="97544_395_0" type="pkw">
        <route edges="241660957#0 4999331#0"/>
    </vehicle>
    <vehicle arrival="23804.00" depart="23715.00" id="100969_396_0" type="pkw">
        <route edges="-5229966#3 319261593#15 319261593#16 4145590#0"/>
    </vehicle>
    <vehicle arrival="25457.00" depart="23715.00" id="91441_392_0" type="pkw">
        <route edges="-5229966#3 319261593#15 319261593#16 241660955#0 241660955#4 241660955#6 241660955#7 241660955#10 241660955#11 241660955#13 241660955#14 241660955#17"/>
    </vehicle>
    <vehicle arrival="23891.00" depart="23723.00" id="103586_397_0" type="pkw">
        <route edges="241660957#0 4999331#0"/>
    </vehicle>
    <vehicle arrival="23951.00" depart="23727.00" id="90321_391_0" type="pkw">
        <route edges="319261593#12 319261593#15 319261593#16 4145590#0"/>
    </vehicle>
    <vehicle arrival="24340.00" depart="23727.00" id="87216_391_0" type="pkw">
        <route edges="4045330 241660955#11 241660955#13 241660955#14 241660955#17"/>
    </vehicle>
    <vehicle arrival="24475.00" depart="23728.00" id="107798_400_0" type="pkw">
        <route edges="-4045329#5 4045329#5 241660955#10 241660955#11 241660955#13 241660955#14 241660955#17"/>
    </vehicle>
    <vehicle arrival="23793.00" depart="23729.00" id="56011_373_0" type="pkw">
        <route edges="-241660955#17 130160207#0"/>
    </vehicle>
    <vehicle arrival="24800.00" depart="23729.00" id="80522_388_0" type="pkw">
        <route edges="319261593#12 319261593#15 319261593#16 4145590#0"/>
    </vehicle>
    <vehicle arrival="24279.00" depart="23731.00" id="94385_393_0" type="pkw">
        <route edges="-130160207#0 241660955#17"/>
    </vehicle>
    <vehicle arrival="24837.00" depart="23734.00" id="100743_396_0" type="pkw">
        <route edges="-241660955#3 241660955#0 241660955#4 241660955#6 241660955#7 241660955#10 241660955#11 241660955#13 241660955#14 241660955#17"/>
    </vehicle>
    <vehicle arrival="24146.00" depart="23736.00" id="90578_391_0" type="pkw">
        <route edges="241660957#0 4999331#0"/>
    </vehicle>
    <vehicle arrival="23876.00" depart="23737.00" id="68066_381_0" type="pkw">
        <route edges="-130160207#0 241660955#17"/>
    </vehicle>
    <vehicle arrival="23908.00" depart="23739.00" id="94471_393_0" type="pkw">
        <route edges="241660957#0 4999331#0"/>
    </vehicle>
    <vehicle arrival="24173.00" depart="23741.00" id="91329_391_0" type="pkw">
        <route edges="4045329#5 -241660955#9 -241660955#6 -241660955#5 -241660955#3 4145590#0"/>
    </vehicle>
    <vehicle arrival="23868.00" depart="23742.00" id="84726_390_0" type="pkw">
        <route edges="241660957#0 4999331#0"/>
    </vehicle>
    <vehicle arrival="24236.00" depart="23742.00" id="88767_391_0" type="pkw">
        <route edges="-41910186"/>
    </vehicle>
    <vehicle arrival="23817.00" depart="23744.00" id="81945_389_0" type="pkw">
        <route edges="-241660955#17 -241660955#16 -241660955#13 -41910184"/>
    </vehicle>
    <vehicle arrival="23836.00" depart="23744.00" id="87615_391_0" type="pkw">
        <route edges="319261593#12 319261593#15 8197886#0 -31864804"/>
    </vehicle>
    <vehicle arrival="23825.00" depart="23747.00" id="83718_390_0" type="pkw">
        <route edges="319261593#12 319261593#15 319261593#16 4999331#0"/>
    </vehicle>
    <vehicle arrival="24294.00" depart="23747.00" id="94053_393_0" type="pkw">
        <route edges="-4999334"/>
    </vehicle>
    <vehicle arrival="25030.00" depart="23748.00" id="94836_393_0" type="pkw">
        <route edges="41910184 241660955#13 241660955#14 130160207#0"/>
    </vehicle>
    <vehicle arrival="23865.00" depart="23749.00" id="70677_382_0" type="pkw">
        <route edges="241660957#0 4999331#0"/>
    </vehicle>
    <vehicle arrival="24309.00" depart="23750.00" id="94683_393_0" type="pkw">
        <route edges="41910184 241660955#13 241660955#14 241660955#17"/>
    </vehicle>
    <vehicle arrival="23953.00" depart="23754.00" id="62692_377_0" type="pkw">
        <route edges="41910184 241660955#13 241660955#14 130160207#0"/>
    </vehicle>
    <vehicle arrival="24737.00" depart="23756.00" id="90142_391_0" type="pkw">
        <route edges="31864804 200818108#0 4145590#0"/>
    </vehicle>
    <vehicle arrival="24242.00" depart="23758.00" id="95584_394_0" type="pkw">
        <route edges="241660957#0 4999331#0"/>
    </vehicle>
    <vehicle arrival="23932.00" depart="23759.00" id="82693_389_0" type="pkw">
        <route edges="241660957#0 4999331#0"/>
    </vehicle>
    <vehicle arrival="24190.00" depart="23760.00" id="82945_390_0" type="pkw">
        <route edges="241660957#0 4999331#0"/>
    </vehicle>
    <vehicle arrival="24312.00" depart="23760.00" id="92766_392_0" type="pkw">
        <route edges="241660955#11 241660955#13 241660955#14 241660955#17"/>
    </vehicle>
    <vehicle arrival="24690.00" depart="23762.00" id="93473_392_0" type="pkw">