<edges>
	<edge from="2" id="2to7" to="7" numLanes="2" />
	<edge from="7" id="7to8" to="8" numLanes="2" />
	<edge from="8" id="8to9" to="9" numLanes="2" />
	<edge from="6" id="6to9" to="9" numLanes="2" />
	<edge from="9" id="9to10" to="10" numLanes="2" />
	<edge from="10" id="10to11" to="11" numLanes="2" />
	<edge from="1" id="1to5" to="5" numLanes="2" />
	<edge from="5" id="5to8" to="8" numLanes="2" />

	<edge from="5" id="5to6" to="6" numLanes="2" />
	<edge from="6" id="6to11" to="11" numLanes="2" />

	<edge from="7" id="7to12" to="12" numLanes="2" />
	<edge from="8" id="8to12" to="12" numLanes="2" />
	<edge from="9" id="9to13" to="13" numLanes="2" />
	<edge from="12" id="12to13" to="13" numLanes="2" />
	<edge from="13" id="13to14" to="14" numLanes="2" />
	<edge from="10" id="10to14" to="14" numLanes="2" />
	<edge from="14" id="14to15" to="15" numLanes="2" />
	<edge from="11" id="11to15" to="15" numLanes="2" />
	<edge from="15" id="15to3" to="3" numLanes="2" />

	<edge from="12" id="12to16" to="16" numLanes="2" />
	<edge from="14" id="14to17" to="17" numLanes="2" />
	<edge from="16" id="16to17" to="17" numLanes="2" />
	<edge from="17" id="17to4" to="4" numLanes="2" />

</edges>
