<?xml version="1.0" encoding="UTF-8"?>
<net version="1.20" junctionCornerDetail="5" limitTurnSpeed="5.50" xmlns:xsi="http://www.w3.org/2001/XMLSchema-instance" xsi:noNamespaceSchemaLocation="http://sumo.dlr.de/xsd/net_file.xsd">
  <edge id="2200742494_0" function="internal">
    <lane id="2200742494_0_0" index="0" speed="3.93" length="2.19" shape=""/>
  </edge>
  <edge id="2200742494_1" function="internal">
    <lane id="2200742494_1_0" index="0" speed="3.93" length="2.19" shape=""/>
  </edge>
  <edge id="2200742494_2" function="internal">
    <lane id="2200742494_2_0" index="0" speed="3.93" length="2.19" shape=""/>
  </edge>
  <edge id="2200742494_3" function="internal">
    <lane id="2200742494_3_0" index="0" speed="3.93" length="2.19" shape=""/>
  </edge>
  <edge id="2200742494_4" function="internal">
    <lane id="2200742494_4_0" index="0" speed="3.93" length="2.19" shape=""/>
  </edge>
  <edge id="2200742494_5" function="internal">
    <lane id="2200742494_5_0" index="0" speed="3.93" length="2.19" shape=""/>
  </edge>
  <edge id="2200742494_6" function="internal">
    <lane id="2200742494_6_0" index="0" speed="3.93" length="2.19" shape=""/>
  </edge>
  <edge id="2200742494_7" function="internal">
    <lane id="2200742494_7_0" index="0" speed="3.93" length="2.19" shape=""/>
  </edge>
  <edge id="2200742494_8" function="internal">
    <lane id="2200742494_8_0" index="0" speed="3.93" length="2.19" shape=""/>
  </edge>
  <edge id="2200742494_9" function="internal">
    <lane id="2200742494_9_0" index="0" speed="3.93" length="2.19" shape=""/>
  </edge>
  <edge id="2200742494_10" function="internal">
    <lane id="2200742494_10_0" index="0" speed="3.93" length="2.19" shape=""/>
  </edge>
  <edge id="2200742494_11" function="internal">
    <lane id="2200742494_11_0" index="0" speed="3.93" length="2.19" shape=""/>
  </edge>
  <edge id="2200742494_12" function="internal">
    <lane id="2200742494_12_0" index="0" speed="3.93" length="2.19" shape=""/>
  </edge>
  <edge id="2200742494_13" function="internal">
    <lane id="2200742494_13_0" index="0" speed="3.93" length="2.19" shape=""/>
  </edge>
  <edge id="2200742494_14" function="internal">
    <lane id="2200742494_14_0" index="0" speed="3.93" length="2.19" shape=""/>
  </edge>
  <edge id="2200742494_15" function="internal">
    <lane id="2200742494_15_0" index="0" speed="3.93" length="2.19" shape=""/>
  </edge>
  <edge id="2200742494_16" function="internal">
    <lane id="2200742494_16_0" index="0" speed="3.93" length="2.19" shape=""/>
  </edge>
  <edge id="2200742494_17" function="internal">
    <lane id="2200742494_17_0" index="0" speed="3.93" length="2.19" shape=""/>
  </edge>
  <edge id="2200742494_18" function="internal">
    <lane id="2200742494_18_0" index="0" speed="3.93" length="2.19" shape=""/>
  </edge>
  <edge id="2200742494_19" function="internal">
    <lane id="2200742494_19_0" index="0" speed="3.93" length="2.19" shape=""/>
  </edge>
  <edge id="2200742494_20" function="internal">
    <lane id="2200742494_20_0" index="0" speed="3.93" length="2.19" shape=""/>
  </edge>
  <edge id="2200742494_21" function="internal">
    <lane id="2200742494_21_0" index="0" speed="3.93" length="2.19" shape=""/>
  </edge>
  <edge id="2200742494_22" function="internal">
    <lane id="2200742494_22_0" index="0" speed="3.93" length="2.19" shape=""/>
  </edge>
  <edge id="2200742494_23" function="internal">
    <lane id="2200742494_23_0" index="0" speed="3.93" length="2.19" shape=""/>
  </edge>
  <edge id="2200742494_24" function="internal">
    <lane id="2200742494_24_0" index="0" speed="3.93" length="2.19" shape=""/>
  </edge>
  <edge id="2200742494_25" function="internal">
    <lane id="2200742494_25_0" index="0" speed="3.93" length="2.19" shape=""/>
  </edge>
  <edge id="2200742494_26" function="internal">
    <lane id="2200742494_26_0" index="0" speed="3.93" length="2.19" shape=""/>
  </edge>
  <edge id="2200742494_27" function="internal">
    <lane id="2200742494_27_0" index="0" speed="3.93" length="2.19" shape=""/>
  </edge>
  <edge id="2200742494_28" function="internal">
    <lane id="2200742494_28_0" index="0" speed="3.93" length="2.19" shape=""/>
  </edge>
  <edge id="2200742494_29" function="internal">
    <lane id="2200742494_29_0" index="0" speed="3.93" length="2.19" shape=""/>
  </edge>
  <edge id="2200742494_30" function="internal">
    <lane id="2200742494_30_0" index="0" speed="3.93" length="2.19" shape=""/>
  </edge>
  <edge id="2200742494_31" function="internal">
    <lane id="2200742494_31_0" index="0" speed="3.93" length="2.19" shape=""/>
  </edge>
  <edge id="2200742494_32" function="internal">
    <lane id="2200742494_32_0" index="0" speed="3.93" length="2.19" shape=""/>
  </edge>
  <edge id="2200742494_33" function="internal">
    <lane id="2200742494_33_0" index="0" speed="3.93" length="2.19" shape=""/>
  </edge>
  <edge id="2200742494_34" function="internal">
    <lane id="2200742494_34_0" index="0" speed="3.93" length="2.19" shape=""/>
  </edge>
  <edge id="2200742494_35" function="internal">
    <lane id="2200742494_35_0" index="0" speed="3.93" length="2.19" shape=""/>
  </edge>
  <edge id="2200742494_36" function="internal">
    <lane id="2200742494_36_0" index="0" speed="3.93" length="2.19" shape=""/>
  </edge>
  <edge id="2200742494_37" function="internal">
    <lane id="2200742494_37_0" index="0" speed="3.93" length="2.19" shape=""/>
  </edge>
  <edge id="2200742494_38" function="internal">
    <lane id="2200742494_38_0" index="0" speed="3.93" length="2.19" shape=""/>
  </edge>
  <edge id="2200742494_39" function="internal">
    <lane id="2200742494_39_0" index="0" speed="3.93" length="2.19" shape=""/>
  </edge>
  <edge id="2200742494_40" function="internal">
    <lane id="2200742494_40_0" index="0" speed="3.93" length="2.19" shape=""/>
  </edge>
  <edge id="2200742494_41" function="internal">
    <lane id="2200742494_41_0" index="0" speed="3.93" length="2.19" shape=""/>
  </edge>
  <edge id="2200742494_42" function="internal">
    <lane id="2200742494_42_0" index="0" speed="3.93" length="2.19" shape=""/>
  </edge>
  <edge id="2200742494_43" function="internal">
    <lane id="2200742494_43_0" index="0" speed="3.93" length="2.19" shape=""/>
  </edge>
  <edge id="2200742494_44" function="internal">
    <lane id="2200742494_44_0" index="0" speed="3.93" length="2.19" shape=""/>
  </edge>
  <edge id="2358086440_0" function="internal">
    <lane id="2358086440_0_0" index="0" speed="3.93" length="2.19" shape=""/>
  </edge>
  <edge id="2358086440_1" function="internal">
    <lane id="2358086440_1_0" index="0" speed="3.93" length="2.19" shape=""/>
  </edge>
  <edge id="2358086440_2" function="internal">
    <lane id="2358086440_2_0" index="0" speed="3.93" length="2.19" shape=""/>
  </edge>
  <edge id="2358086440_3" function="internal">
    <lane id="2358086440_3_0" index="0" speed="3.93" length="2.19" shape=""/>
  </edge>
  <edge id="2358086440_4" function="internal">
    <lane id="2358086440_4_0" index="0" speed="3.93" length="2.19" shape=""/>
  </edge>
  <edge id="2358086440_5" function="internal">
    <lane id="2358086440_5_0" index="0" speed="3.93" length="2.19" shape=""/>
  </edge>
  <edge id="2358086440_6" function="internal">
    <lane id="2358086440_6_0" index="0" speed="3.93" length="2.19" shape=""/>
  </edge>
  <edge id="2358086440_7" function="internal">
    <lane id="2358086440_7_0" index="0" speed="3.93" length="2.19" shape=""/>
  </edge>
  <edge id="2358086440_8" function="internal">
    <lane id="2358086440_8_0" index="0" speed="3.93" length="2.19" shape=""/>
  </edge>
  <edge id="2358086440_9" function="internal">
    <lane id="2358086440_9_0" index="0" speed="3.93" length="2.19" shape=""/>
  </edge>
  <edge id="2358086440_10" function="internal">
    <lane id="2358086440_10_0" index="0" speed="3.93" length="2.19" shape=""/>
  </edge>
  <edge id="2358086440_11" function="internal">
    <lane id="2358086440_11_0" index="0" speed="3.93" length="2.19" shape=""/>
  </edge>
  <edge id="2358086440_12" function="internal">
    <lane id="2358086440_12_0" index="0" speed="3.93" length="2.19" shape=""/>
  </edge>
  <edge id="2358086440_13" function="internal">
    <lane id="2358086440_13_0" index="0" speed="3.93" length="2.19" shape=""/>
  </edge>
  <edge id="2358086440_14" function="internal">
    <lane id="2358086440_14_0" index="0" speed="3.93" length="2.19" shape=""/>
  </edge>
  <edge id="2358086440_15" function="internal">
    <lane id="2358086440_15_0" index="0" speed="3.93" length="2.19" shape=""/>
  </edge>
  <edge id="2358086440_16" function="internal">
    <lane id="2358086440_16_0" index="0" speed="3.93" length="2.19" shape=""/>
  </edge>
  <edge id="2358086440_17" function="internal">
    <lane id="2358086440_17_0" index="0" speed="3.93" length="2.19" shape=""/>
  </edge>
  <edge id="2358086440_18" function="internal">
    <lane id="2358086440_18_0" index="0" speed="3.93" length="2.19" shape=""/>
  </edge>
  <edge id="2358086440_19" function="internal">
    <lane id="2358086440_19_0" index="0" speed="3.93" length="2.19" shape=""/>
  </edge>
  <edge id="2358086440_20" function="internal">
    <lane id="2358086440_20_0" index="0" speed="3.93" length="2.19" shape=""/>
  </edge>
  <edge id="2358086440_21" function="internal">
    <lane id="2358086440_21_0" index="0" speed="3.93" length="2.19" shape=""/>
  </edge>
  <edge id="2358086440_22" function="internal">
    <lane id="2358086440_22_0" index="0" speed="3.93" length="2.19" shape=""/>
  </edge>
  <edge id="2358086440_23" function="internal">
    <lane id="2358086440_23_0" index="0" speed="3.93" length="2.19" shape=""/>
  </edge>
  <edge id="2358086440_24" function="internal">
    <lane id="2358086440_24_0" index="0" speed="3.93" length="2.19" shape=""/>
  </edge>
  <edge id="2358086440_25" function="internal">
    <lane id="2358086440_25_0" index="0" speed="3.93" length="2.19" shape=""/>
  </edge>
  <edge id="2358086440_26" function="internal">
    <lane id="2358086440_26_0" index="0" speed="3.93" length="2.19" shape=""/>
  </edge>
  <edge id="2358086440_27" function="internal">
    <lane id="2358086440_27_0" index="0" speed="3.93" length="2.19" shape=""/>
  </edge>
  <edge id="2358086440_28" function="internal">
    <lane id="2358086440_28_0" index="0" speed="3.93" length="2.19" shape=""/>
  </edge>
  <edge id="2358086440_29" function="internal">
    <lane id="2358086440_29_0" index="0" speed="3.93" length="2.19" shape=""/>
  </edge>
  <edge id="2358086440_30" function="internal">
    <lane id="2358086440_30_0" index="0" speed="3.93" length="2.19" shape=""/>
  </edge>
  <edge id="2358086440_31" function="internal">
    <lane id="2358086440_31_0" index="0" speed="3.93" length="2.19" shape=""/>
  </edge>
  <edge id="2358086440_32" function="internal">
    <lane id="2358086440_32_0" index="0" speed="3.93" length="2.19" shape=""/>
  </edge>
  <edge id="2358086440_33" function="internal">
    <lane id="2358086440_33_0" index="0" speed="3.93" length="2.19" shape=""/>
  </edge>
  <edge id="2358086440_34" function="internal">
    <lane id="2358086440_34_0" index="0" speed="3.93" length="2.19" shape=""/>
  </edge>
  <edge id="2358086440_35" function="internal">
    <lane id="2358086440_35_0" index="0" speed="3.93" length="2.19" shape=""/>
  </edge>
  <edge id="2358086440_36" function="internal">
    <lane id="2358086440_36_0" index="0" speed="3.93" length="2.19" shape=""/>
  </edge>
  <edge id="2358086440_37" function="internal">
    <lane id="2358086440_37_0" index="0" speed="3.93" length="2.19" shape=""/>
  </edge>
  <edge id="2358086440_38" function="internal">
    <lane id="2358086440_38_0" index="0" speed="3.93" length="2.19" shape=""/>
  </edge>
  <edge id="2358086440_39" function="internal">
    <lane id="2358086440_39_0" index="0" speed="3.93" length="2.19" shape=""/>
  </edge>
  <edge id="2358086440_40" function="internal">
    <lane id="2358086440_40_0" index="0" speed="3.93" length="2.19" shape=""/>
  </edge>
  <edge id="2358086440_41" function="internal">
    <lane id="2358086440_41_0" index="0" speed="3.93" length="2.19" shape=""/>
  </edge>
  <edge id="2358086443_0" function="internal">
    <lane id="2358086443_0_0" index="0" speed="3.93" length="2.19" shape=""/>
  </edge>
  <edge id="2358086443_1" function="internal">
    <lane id="2358086443_1_0" index="0" speed="3.93" length="2.19" shape=""/>
  </edge>
  <edge id="2358086443_2" function="internal">
    <lane id="2358086443_2_0" index="0" speed="3.93" length="2.19" shape=""/>
  </edge>
  <edge id="2358086443_3" function="internal">
    <lane id="2358086443_3_0" index="0" speed="3.93" length="2.19" shape=""/>
  </edge>
  <edge id="2358086443_4" function="internal">
    <lane id="2358086443_4_0" index="0" speed="3.93" length="2.19" shape=""/>
  </edge>
  <edge id="2358086443_5" function="internal">
    <lane id="2358086443_5_0" index="0" speed="3.93" length="2.19" shape=""/>
  </edge>
  <edge id="2358086443_6" function="internal">
    <lane id="2358086443_6_0" index="0" speed="3.93" length="2.19" shape=""/>
  </edge>
  <edge id="2358086443_7" function="internal">
    <lane id="2358086443_7_0" index="0" speed="3.93" length="2.19" shape=""/>
  </edge>
  <edge id="2358086443_8" function="internal">
    <lane id="2358086443_8_0" index="0" speed="3.93" length="2.19" shape=""/>
  </edge>
  <edge id="2358086443_9" function="internal">
    <lane id="2358086443_9_0" index="0" speed="3.93" length="2.19" shape=""/>
  </edge>
  <edge id="2358086443_10" function="internal">
    <lane id="2358086443_10_0" index="0" speed="3.93" length="2.19" shape=""/>
  </edge>
  <edge id="2358086443_11" function="internal">
    <lane id="2358086443_11_0" index="0" speed="3.93" length="2.19" shape=""/>
  </edge>
  <edge id="2358086443_12" function="internal">
    <lane id="2358086443_12_0" index="0" speed="3.93" length="2.19" shape=""/>
  </edge>
  <edge id="2358086443_13" function="internal">
    <lane id="2358086443_13_0" index="0" speed="3.93" length="2.19" shape=""/>
  </edge>
  <edge id="2358086443_14" function="internal">
    <lane id="2358086443_14_0" index="0" speed="3.93" length="2.19" shape=""/>
  </edge>
  <edge id="2358086443_15" function="internal">
    <lane id="2358086443_15_0" index="0" speed="3.93" length="2.19" shape=""/>
  </edge>
  <edge id="2358086443_16" function="internal">
    <lane id="2358086443_16_0" index="0" speed="3.93" length="2.19" shape=""/>
  </edge>
  <edge id="2358086443_17" function="internal">
    <lane id="2358086443_17_0" index="0" speed="3.93" length="2.19" shape=""/>
  </edge>
  <edge id="2358086443_18" function="internal">
    <lane id="2358086443_18_0" index="0" speed="3.93" length="2.19" shape=""/>
  </edge>
  <edge id="2358086443_19" function="internal">
    <lane id="2358086443_19_0" index="0" speed="3.93" length="2.19" shape=""/>
  </edge>
  <edge id="2358086443_20" function="internal">
    <lane id="2358086443_20_0" index="0" speed="3.93" length="2.19" shape=""/>
  </edge>
  <edge id="2358086443_21" function="internal">
    <lane id="2358086443_21_0" index="0" speed="3.93" length="2.19" shape=""/>
  </edge>
  <edge id="2358086443_22" function="internal">
    <lane id="2358086443_22_0" index="0" speed="3.93" length="2.19" shape=""/>
  </edge>
  <edge id="2358086443_23" function="internal">
    <lane id="2358086443_23_0" index="0" speed="3.93" length="2.19" shape=""/>
  </edge>
  <edge id="2358086443_24" function="internal">
    <lane id="2358086443_24_0" index="0" speed="3.93" length="2.19" shape=""/>
  </edge>
  <edge id="2358086443_25" function="internal">
    <lane id="2358086443_25_0" index="0" speed="3.93" length="2.19" shape=""/>
  </edge>
  <edge id="2358086443_26" function="internal">
    <lane id="2358086443_26_0" index="0" speed="3.93" length="2.19" shape=""/>
  </edge>
  <edge id="2358086443_27" function="internal">
    <lane id="2358086443_27_0" index="0" speed="3.93" length="2.19" shape=""/>
  </edge>
  <edge id="2358086443_28" function="internal">
    <lane id="2358086443_28_0" index="0" speed="3.93" length="2.19" shape=""/>
  </edge>
  <edge id="2358086443_29" function="internal">
    <lane id="2358086443_29_0" index="0" speed="3.93" length="2.19" shape=""/>
  </edge>
  <edge id="2358086443_30" function="internal">
    <lane id="2358086443_30_0" index="0" speed="3.93" length="2.19" shape=""/>
  </edge>
  <edge id="2358086443_31" function="internal">
    <lane id="2358086443_31_0" index="0" speed="3.93" length="2.19" shape=""/>
  </edge>
  <edge id="2358086459_0" function="internal">
    <lane id="2358086459_0_0" index="0" speed="3.93" length="2.19" shape=""/>
  </edge>
  <edge id="2358086459_1" function="internal">
    <lane id="2358086459_1_0" index="0" speed="3.93" length="2.19" shape=""/>
  </edge>
  <edge id="2358086459_2" function="internal">
    <lane id="2358086459_2_0" index="0" speed="3.93" length="2.19" shape=""/>
  </edge>
  <edge id="2358086459_3" function="internal">
    <lane id="2358086459_3_0" index="0" speed="3.93" length="2.19" shape=""/>
  </edge>
  <edge id="2358086459_4" function="internal">
    <lane id="2358086459_4_0" index="0" speed="3.93" length="2.19" shape=""/>
  </edge>
  <edge id="2358086459_5" function="internal">
    <lane id="2358086459_5_0" index="0" speed="3.93" length="2.19" shape=""/>
  </edge>
  <edge id="2358086459_6" function="internal">
    <lane id="2358086459_6_0" index="0" speed="3.93" length="2.19" shape=""/>
  </edge>
  <edge id="2358086459_7" function="internal">
    <lane id="2358086459_7_0" index="0" speed="3.93" length="2.19" shape=""/>
  </edge>
  <edge id="2358086459_8" function="internal">
    <lane id="2358086459_8_0" index="0" speed="3.93" length="2.19" shape=""/>
  </edge>
  <edge id="2358086459_9" function="internal">
    <lane id="2358086459_9_0" index="0" speed="3.93" length="2.19" shape=""/>
  </edge>
  <edge id="2358086459_10" function="internal">
    <lane id="2358086459_10_0" index="0" speed="3.93" length="2.19" shape=""/>
  </edge>
  <edge id="2358086459_11" function="internal">
    <lane id="2358086459_11_0" index="0" speed="3.93" length="2.19" shape=""/>
  </edge>
  <edge id="2358086459_12" function="internal">
    <lane id="2358086459_12_0" index="0" speed="3.93" length="2.19" shape=""/>
  </edge>
  <edge id="2358086459_13" function="internal">
    <lane id="2358086459_13_0" index="0" speed="3.93" length="2.19" shape=""/>
  </edge>
  <edge id="2358086459_14" function="internal">
    <lane id="2358086459_14_0" index="0" speed="3.93" length="2.19" shape=""/>
  </edge>
  <edge id="2358086459_15" function="internal">
    <lane id="2358086459_15_0" index="0" speed="3.93" length="2.19" shape=""/>
  </edge>
  <edge id="2358086459_16" function="internal">
    <lane id="2358086459_16_0" index="0" speed="3.93" length="2.19" shape=""/>
  </edge>
  <edge id="2358086459_17" function="internal">
    <lane id="2358086459_17_0" index="0" speed="3.93" length="2.19" shape=""/>
  </edge>
  <edge id="2358086459_18" function="internal">
    <lane id="2358086459_18_0" index="0" speed="3.93" length="2.19" shape=""/>
  </edge>
  <edge id="2358086459_19" function="internal">
    <lane id="2358086459_19_0" index="0" speed="3.93" length="2.19" shape=""/>
  </edge>
  <edge id="2358086459_20" function="internal">
    <lane id="2358086459_20_0" index="0" speed="3.93" length="2.19" shape=""/>
  </edge>
  <edge id="2358086459_21" function="internal">
    <lane id="2358086459_21_0" index="0" speed="3.93" length="2.19" shape=""/>
  </edge>
  <edge id="2358086459_22" function="internal">
    <lane id="2358086459_22_0" index="0" speed="3.93" length="2.19" shape=""/>
  </edge>
  <edge id="2358086459_23" function="internal">
    <lane id="2358086459_23_0" index="0" speed="3.93" length="2.19" shape=""/>
  </edge>
  <edge id="2358086459_24" function="internal">
    <lane id="2358086459_24_0" index="0" speed="3.93" length="2.19" shape=""/>
  </edge>
  <edge id="2358086459_25" function="internal">
    <lane id="2358086459_25_0" index="0" speed="3.93" length="2.19" shape=""/>
  </edge>
  <edge id="2358086459_26" function="internal">
    <lane id="2358086459_26_0" index="0" speed="3.93" length="2.19" shape=""/>
  </edge>
  <edge id="2358086459_27" function="internal">
    <lane id="2358086459_27_0" index="0" speed="3.93" length="2.19" shape=""/>
  </edge>
  <edge id="2358086459_28" function="internal">
    <lane id="2358086459_28_0" index="0" speed="3.93" length="2.19" shape=""/>
  </edge>
  <edge id="2358086459_29" function="internal">
    <lane id="2358086459_29_0" index="0" speed="3.93" length="2.19" shape=""/>
  </edge>
  <edge id="2358086459_30" function="internal">
    <lane id="2358086459_30_0" index="0" speed="3.93" length="2.19" shape=""/>
  </edge>
  <edge id="2358086459_31" function="internal">
    <lane id="2358086459_31_0" index="0" speed="3.93" length="2.19" shape=""/>
  </edge>
  <edge id="2358086462_0" function="internal">
    <lane id="2358086462_0_0" index="0" speed="3.93" length="2.19" shape=""/>
  </edge>
  <edge id="2358086462_1" function="internal">
    <lane id="2358086462_1_0" index="0" speed="3.93" length="2.19" shape=""/>
  </edge>
  <edge id="2358086462_2" function="internal">
    <lane id="2358086462_2_0" index="0" speed="3.93" length="2.19" shape=""/>
  </edge>
  <edge id="2358086462_3" function="internal">
    <lane id="2358086462_3_0" index="0" speed="3.93" length="2.19" shape=""/>
  </edge>
  <edge id="269388345_0" function="internal">
    <lane id="269388345_0_0" index="0" speed="3.93" length="2.19" shape=""/>
  </edge>
  <edge id="269388345_1" function="internal">
    <lane id="269388345_1_0" index="0" speed="3.93" length="2.19" shape=""/>
  </edge>
  <edge id="269388345_2" function="internal">
    <lane id="269388345_2_0" index="0" speed="3.93" length="2.19" shape=""/>
  </edge>
  <edge id="269388345_3" function="internal">
    <lane id="269388345_3_0" index="0" speed="3.93" length="2.19" shape=""/>
  </edge>
  <edge id="269388345_4" function="internal">
    <lane id="269388345_4_0" index="0" speed="3.93" length="2.19" shape=""/>
  </edge>
  <edge id="269388345_5" function="internal">
    <lane id="269388345_5_0" index="0" speed="3.93" length="2.19" shape=""/>
  </edge>
  <edge id="269388345_6" function="internal">
    <lane id="269388345_6_0" index="0" speed="3.93" length="2.19" shape=""/>
  </edge>
  <edge id="269388345_7" function="internal">
    <lane id="269388345_7_0" index="0" speed="3.93" length="2.19" shape=""/>
  </edge>
  <edge id="269388769_0" function="internal">
    <lane id="269388769_0_0" index="0" speed="3.93" length="2.19" shape=""/>
  </edge>
  <edge id="269388769_1" function="internal">
    <lane id="269388769_1_0" index="0" speed="3.93" length="2.19" shape=""/>
  </edge>
  <edge id="269388769_2" function="internal">
    <lane id="269388769_2_0" index="0" speed="3.93" length="2.19" shape=""/>
  </edge>
  <edge id="269388769_3" function="internal">
    <lane id="269388769_3_0" index="0" speed="3.93" length="2.19" shape=""/>
  </edge>
  <edge id="269388769_4" function="internal">
    <lane id="269388769_4_0" index="0" speed="3.93" length="2.19" shape=""/>
  </edge>
  <edge id="269388769_5" function="internal">
    <lane id="269388769_5_0" index="0" speed="3.93" length="2.19" shape=""/>
  </edge>
  <edge id="269388769_6" function="internal">
    <lane id="269388769_6_0" index="0" speed="3.93" length="2.19" shape=""/>
  </edge>
  <edge id="269388769_7" function="internal">
    <lane id="269388769_7_0" index="0" speed="3.93" length="2.19" shape=""/>
  </edge>
  <edge id="269388769_8" function="internal">
    <lane id="269388769_8_0" index="0" speed="3.93" length="2.19" shape=""/>
  </edge>
  <edge id="269388769_9" function="internal">
    <lane id="269388769_9_0" index="0" speed="3.93" length="2.19" shape=""/>
  </edge>
  <edge id="269388769_10" function="internal">
    <lane id="269388769_10_0" index="0" speed="3.93" length="2.19" shape=""/>
  </edge>
  <edge id="269388769_11" function="internal">
    <lane id="269388769_11_0" index="0" speed="3.93" length="2.19" shape=""/>
  </edge>
  <edge id="269388769_12" function="internal">
    <lane id="269388769_12_0" index="0" speed="3.93" length="2.19" shape=""/>
  </edge>
  <edge id="269388769_13" function="internal">
    <lane id="269388769_13_0" index="0" speed="3.93" length="2.19" shape=""/>
  </edge>
  <edge id="269388769_14" function="internal">
    <lane id="269388769_14_0" index="0" speed="3.93" length="2.19" shape=""/>
  </edge>
  <edge id="269388769_15" function="internal">
    <lane id="269388769_15_0" index="0" speed="3.93" length="2.19" shape=""/>
  </edge>
  <edge id="269388769_16" function="internal">
    <lane id="269388769_16_0" index="0" speed="3.93" length="2.19" shape=""/>
  </edge>
  <edge id="269388769_17" function="internal">
    <lane id="269388769_17_0" index="0" speed="3.93" length="2.19" shape=""/>
  </edge>
  <edge id="269388769_18" function="internal">
    <lane id="269388769_18_0" index="0" speed="3.93" length="2.19" shape=""/>
  </edge>
  <edge id="269388769_19" function="internal">
    <lane id="269388769_19_0" index="0" speed="3.93" length="2.19" shape=""/>
  </edge>
  <edge id="269388769_20" function="internal">
    <lane id="269388769_20_0" index="0" speed="3.93" length="2.19" shape=""/>
  </edge>
  <edge id="269388769_21" function="internal">
    <lane id="269388769_21_0" index="0" speed="3.93" length="2.19" shape=""/>
  </edge>
  <edge id="269388769_22" function="internal">
    <lane id="269388769_22_0" index="0" speed="3.93" length="2.19" shape=""/>
  </edge>
  <edge id="269388769_23" function="internal">
    <lane id="269388769_23_0" index="0" speed="3.93" length="2.19" shape=""/>
  </edge>
  <edge id="269388769_24" function="internal">
    <lane id="269388769_24_0" index="0" speed="3.93" length="2.19" shape=""/>
  </edge>
  <edge id="269388769_25" function="internal">
    <lane id="269388769_25_0" index="0" speed="3.93" length="2.19" shape=""/>
  </edge>
  <edge id="269388769_26" function="internal">
    <lane id="269388769_26_0" index="0" speed="3.93" length="2.19" shape=""/>
  </edge>
  <edge id="269388769_27" function="internal">
    <lane id="269388769_27_0" index="0" speed="3.93" length="2.19" shape=""/>
  </edge>
  <edge id="269388769_28" function="internal">
    <lane id="269388769_28_0" index="0" speed="3.93" length="2.19" shape=""/>
  </edge>
  <edge id="269388769_29" function="internal">
    <lane id="269388769_29_0" index="0" speed="3.93" length="2.19" shape=""/>
  </edge>
  <edge id="269388769_30" function="internal">
    <lane id="269388769_30_0" index="0" speed="3.93" length="2.19" shape=""/>
  </edge>
  <edge id="269388769_31" function="internal">
    <lane id="269388769_31_0" index="0" speed="3.93" length="2.19" shape=""/>
  </edge>
  <edge id="269388771_0" function="internal">
    <lane id="269388771_0_0" index="0" speed="3.93" length="2.19" shape=""/>
  </edge>
  <edge id="269388771_1" function="internal">
    <lane id="269388771_1_0" index="0" speed="3.93" length="2.19" shape=""/>
  </edge>
  <edge id="269388771_2" function="internal">
    <lane id="269388771_2_0" index="0" speed="3.93" length="2.19" shape=""/>
  </edge>
  <edge id="269388771_3" function="internal">
    <lane id="269388771_3_0" index="0" speed="3.93" length="2.19" shape=""/>
  </edge>
  <edge id="269388771_4" function="internal">
    <lane id="269388771_4_0" index="0" speed="3.93" length="2.19" shape=""/>
  </edge>
  <edge id="269388771_5" function="internal">
    <lane id="269388771_5_0" index="0" speed="3.93" length="2.19" shape=""/>
  </edge>
  <edge id="269388771_6" function="internal">
    <lane id="269388771_6_0" index="0" speed="3.93" length="2.19" shape=""/>
  </edge>
  <edge id="269388771_7" function="internal">
    <lane id="269388771_7_0" index="0" speed="3.93" length="2.19" shape=""/>
  </edge>
  <edge id="269388771_8" function="internal">
    <lane id="269388771_8_0" index="0" speed="3.93" length="2.19" shape=""/>
  </edge>
  <edge id="269388771_9" function="internal">
    <lane id="269388771_9_0" index="0" speed="3.93" length="2.19" shape=""/>
  </edge>
  <edge id="269388771_10" function="internal">
    <lane id="269388771_10_0" index="0" speed="3.93" length="2.19" shape=""/>
  </edge>
  <edge id="269388771_11" function="internal">
    <lane id="269388771_11_0" index="0" speed="3.93" length="2.19" shape=""/>
  </edge>
  <edge id="269388771_12" function="internal">
    <lane id="269388771_12_0" index="0" speed="3.93" length="2.19" shape=""/>
  </edge>
  <edge id="269388771_13" function="internal">
    <lane id="269388771_13_0" index="0" speed="3.93" length="2.19" shape=""/>
  </edge>
  <edge id="269388771_14" function="internal">
    <lane id="269388771_14_0" index="0" speed="3.93" length="2.19" shape=""/>
  </edge>
  <edge id="269388771_15" function="internal">
    <lane id="269388771_15_0" index="0" speed="3.93" length="2.19" shape=""/>
  </edge>
  <edge id="269388771_16" function="internal">
    <lane id="269388771_16_0" index="0" speed="3.93" length="2.19" shape=""/>
  </edge>
  <edge id="269388771_17" function="internal">
    <lane id="269388771_17_0" index="0" speed="3.93" length="2.19" shape=""/>
  </edge>
  <edge id="269388771_18" function="internal">
    <lane id="269388771_18_0" index="0" speed="3.93" length="2.19" shape=""/>
  </edge>
  <edge id="269388771_19" function="internal">
    <lane id="269388771_19_0" index="0" speed="3.93" length="2.19" shape=""/>
  </edge>
  <edge id="269388771_20" function="internal">
    <lane id="269388771_20_0" index="0" speed="3.93" length="2.19" shape=""/>
  </edge>
  <edge id="269388771_21" function="internal">
    <lane id="269388771_21_0" index="0" speed="3.93" length="2.19" shape=""/>
  </edge>
  <edge id="269388771_22" function="internal">
    <lane id="269388771_22_0" index="0" speed="3.93" length="2.19" shape=""/>
  </edge>
  <edge id="269388771_23" function="internal">
    <lane id="269388771_23_0" index="0" speed="3.93" length="2.19" shape=""/>
  </edge>