<?xml version="1.0" encoding="UTF-8"?>

<!-- generated on 2025-02-27 00:13:10 by Eclipse SUMO netedit Version 1.20.0
-->

<routes xmlns:xsi="http://www.w3.org/2001/XMLSchema-instance" xsi:noNamespaceSchemaLocation="http://sumo.dlr.de/xsd/routes_file.xsd">
    <!-- Routes -->
    <route id="route_0" edges="-185720528 -405366768 -405366771 -405366764 -518178646 -518178745 -405366766 -405366763 -405366770 -405366773 -405367634 -405367637 -405367632 -405367638 -405367640 -405367639 -182456135"/>
    <route id="route_1" edges="468917797.108 -405366768 -405366771 -405366764 -518178646 -518178745 -405366766 -405366763 -405366770 -405366773 -313036847"/>
    <route id="route_10" edges="468917797.108 -405366768 -405366771 -405366764 -518178646 -518178745 -405366766 -405366763 -405366770 -405366773 -405367634 -405367637 -405367632 -405367638 -405367640 -405367639 -13400999"/>
    <route id="route_11" edges="518179569 -405366764 -518178646 -518178745 -405366766 -405366763 -405366770 -405366773 -405367634 -405367637 -405367632 -405367638 -405367640 -405367639 -182456135"/>
    <route id="route_12" edges="182456135 405367639 405367640 405367638 405367632 405367637 405367634 405366773 405366770 405366763 405366766 518178745 518178646 405366764 508815234 482940996#1"/>
    <route id="route_13" edges="182456135 405367639 405367640 405367638 405367632 405367637 405367634 -227078004"/>
    <route id="route_14" edges="508815228 -405366764 -518178646 -518178745 -405366766 -405366763 -405366770 -405366773 -405367634 -405367637 -405367632 -405367638 -405367640 -405367639 -182456135"/>
    <route id="route_15" edges="508815228 -405366764 -518178646 -518178745 -405366766 -405366763 -405366770 -405366773 -405367634 -405367637 -405367632 -405367638 -405367640 -405367639 -13400999"/>
    <route id="route_16" edges="508815228 518179568"/>
    <route id="route_17" edges="182456135 405367639 405367640 405367638 405367632 405367637 405367634 -313036847"/>
    <route id="route_18" edges="-185720528 -405366768 -405366771 508815234 482940996#1"/>
    <route id="route_19" edges="13400999 -182456135"/>
    <route id="route_2" edges="182456135 405367639 405367640 405367638 405367632 405367637 405367634 405366773 405366770 405366763 405366766 518178745 518178646 405366764 405366771 405366768 185720528"/>
    <route id="route_20" edges="468917797.108 -405366768 -405366771 -405366764 -518178646 -518178745 -405366766 -405366763 -405366770 -405366773 -227078004"/>
    <route id="route_21" edges="313036847 -405367634 -405367637 -405367632 -405367638 -405367640 -405367639 -182456135"/>
    <route id="route_22" edges="182456135 -13400999"/>
    <route id="route_23" edges="-506148923#1 -506148923#0 405367639 405367640 405367638 405367632 405367637 405367634 405366773 405366770 405366763 405366766 518178745 518178646 405366764 405366771 405366768 185720528"/>
    <route id="route_24" edges="468917797.108 -405366768 -405366771 -405366764 -518178646 -518178745 -405366766 -405366763 -405366770 -405366773 -405367634 -405367637 -405367632 -405367638 -405367640 -405367639 506148923#0 506148923#1"/>
    <route id="route_25" edges="518179569 -405366764 -518178646 -518178745 -405366766 -405366763 -405366770 -405366773 -227078004"/>
    <route id="route_26" edges="508809477#0 405366773 405366770 405366763 405366766 518178745 518178646 405366764 405366771 405366768 185720528"/>
    <route id="route_27" edges="508815228 405366771 405366768 185720528"/>
    <route id="route_28" edges="-185720528 -405366768 -405366771 -405366764 -518178646 -518178745 -405366766 -405366763 -405366770 -405366773 -313036847"/>
    <route id="route_29" edges="508809477#0 -405367634 -405367637 -405367632 -405367638 -405367640 -405367639 -182456135"/>
    <route id="route_3" edges="-185720528 -405366768 -405366771 518179568"/>
    <route id="route_30" edges="313036847 405366773 405366770 405366763 405366766 518178745 518178646 405366764 405366771 405366768 185720528"/>
    <route id="route_31" edges="-506148923#1 -506148923#0 405367639 405367640 405367638 405367632 405367637 405367634 405366773 405366770 405366763 405366766 518178745 518178646 405366764 508815234 482940996#1"/>
    <route id="route_32" edges="-506148923#1 -506148923#0 -182456135"/>
    <route id="route_33" edges="13400999 405367639 405367640 405367638 405367632 405367637 405367634 405366773 405366770 405366763 405366766 518178745 518178646 405366764 405366771 405366768 185720528"/>
    <route id="route_34" edges="-185720528 -405366768 -405366771 -405366764 -518178646 -518178745 -405366766 -405366763 -405366770 -405366773 -405367634 -405367637 -405367632 -405367638 -405367640 -405367639 -13400999"/>
    <route id="route_35" edges="508815228 -405366764 -518178646 -518178745 -405366766 -405366763 -405366770 -405366773 -313036847"/>
    <route id="route_36" edges="13400999 405367639 405367640 405367638 405367632 405367637 405367634 405366773 405366770 405366763 405366766 518178745 518178646 405366764 518179568"/>
    <route id="route_37" edges="-185720528 -405366768 -405366771 -405366764 -518178646 -518178745 -405366766 -405366763 -405366770 -405366773 -405367634 -405367637 -405367632 -405367638 -405367640 -405367639 506148923#0 506148923#1"/>
    <route id="route_38" edges="313036847 405366773 405366770 405366763 405366766 518178745 518178646 405366764 508815234 482940996#1"/>
    <route id="route_39" edges="313036847 405366773 405366770 405366763 405366766 518178745 518178646 405366764 518179568"/>
    <route id="route_4" edges="468917797.108 185720528"/>
    <route id="route_40" edges="-185720528 -405366768 -405366771 -405366764 -518178646 -518178745 -405366766 -405366763 -405366770 -405366773 -227078004"/>
    <route id="route_41" edges="508809477#0 405366773 405366770 405366763 405366766 518178745 518178646 405366764 518179568"/>
    <route id="route_42" edges="468917797.108 -405366768 -405366771 508815234 482940996#1"/>
    <route id="route_43" edges="13400999 506148923#0 506148923#1"/>
    <route id="route_44" edges="182456135 506148923#0 506148923#1"/>
    <route id="route_45" edges="13400999 405367639 405367640 405367638 405367632 405367637 405367634 405366773 405366770 405366763 405366766 518178745 518178646 405366764 508815234 482940996#1"/>
    <route id="route_46" edges="-506148923#1 -506148923#0 405367639 405367640 405367638 405367632 405367637 405367634 405366773 405366770 405366763 405366766 518178745 518178646 405366764 518179568"/>
    <route id="route_47" edges="518179569 -405366764 -518178646 -518178745 -405366766 -405366763 -405366770 -405366773 -405367634 -405367637 -405367632 -405367638 -405367640 -405367639 -13400999"/>
    <route id="route_5" edges="468917797.108 -405366768 -405366771 -405366764 -518178646 -518178745 -405366766 -405366763 -405366770 -405366773 -405367634 -405367637 -405367632 -405367638 -405367640 -405367639 -182456135"/>
    <route id="route_6" edges="518179569 508815234 482940996#1"/>
    <route id="route_7" edges="182456135 405367639 405367640 405367638 405367632 405367637 405367634 405366773 405366770 405366763 405366766 518178745 518178646 405366764 518179568"/>
    <route id="route_8" edges="468917797.108 -405366768 -405366771 518179568"/>
    <route id="route_9" edges="518179569 405366771 405366768 185720528"/>
    <!-- Vehicles, persons and containers (sorted by depart) -->
    <vehicle id="vehicle_0" depart="0.00" route="route_0"/>
    <vehicle id="vehicle_1" depart="0.00" route="route_1"/>
    <vehicle id="vehicle_2" depart="3.00" route="route_0"/>
    <vehicle id="vehicle_3" depart="3.00" route="route_2"/>
    <vehicle id="vehicle_4" depart="3.00" route="route_2"/>
    <vehicle id="vehicle_5" depart="4.00" route="route_2"/>
    <vehicle id="vehicle_6" depart="5.00" route="route_3"/>
    <vehicle id="vehicle_7" depart="6.00" route="route_2"/>
    <vehicle id="vehicle_8" depart="7.00" route="route_0"/>
    <vehicle id="vehicle_10" depart="9.00" route="route_2"/>
    <vehicle id="vehicle_11" depart="9.00" route="route_4"/>
    <vehicle id="vehicle_12" depart="9.00" route="route_5"/>
    <vehicle id="vehicle_13" depart="9.00" route="route_6"/>
    <vehicle id="vehicle_14" depart="9.00" route="route_6"/>
    <vehicle id="vehicle_9" depart="9.00" route="route_2"/>
    <vehicle id="vehicle_15" depart="10.00" route="route_2"/>
    <vehicle id="vehicle_16" depart="12.00" route="route_2"/>
    <vehicle id="vehicle_17" depart="12.00" route="route_7"/>
    <vehicle id="vehicle_18" depart="13.00" route="route_5"/>
    <vehicle id="vehicle_19" depart="16.00" route="route_5"/>
    <vehicle id="vehicle_20" depart="17.00" route="route_5"/>
    <vehicle id="vehicle_21" depart="18.00" route="route_5"/>
    <vehicle id="vehicle_22" depart="20.00" route="route_8"/>
    <vehicle id="vehicle_23" depart="20.00" route="route_9"/>
    <vehicle id="vehicle_24" depart="21.00" route="route_5"/>
    <vehicle id="vehicle_25" depart="22.00" route="route_8"/>
    <vehicle id="vehicle_26" depart="22.00" route="route_5"/>
    <vehicle id="vehicle_27" depart="25.00" route="route_7"/>
    <vehicle id="vehicle_28" depart="25.00" route="route_10"/>
    <vehicle id="vehicle_29" depart="26.00" route="route_2"/>
    <vehicle id="vehicle_30" depart="28.00" route="route_6"/>
    <vehicle id="vehicle_31" depart="29.00" route="route_10"/>
    <vehicle id="vehicle_32" depart="29.00" route="route_6"/>
    <vehicle id="vehicle_33" depart="29.00" route="route_11"/>
    <vehicle id="vehicle_34" depart="31.00" route="route_2"/>
    <vehicle id="vehicle_35" depart="35.00" route="route_3"/>
    <vehicle id="vehicle_36" depart="35.00" route="route_7"/>
    <vehicle id="vehicle_37" depart="36.00" route="route_2"/>
    <vehicle id="vehicle_38" depart="36.00" route="route_2"/>
    <vehicle id="vehicle_39" depart="38.00" route="route_7"/>
    <vehicle id="vehicle_40" depart="38.00" route="route_2"/>
    <vehicle id="vehicle_41" depart="38.00" route="route_2"/>
    <vehicle id="vehicle_42" depart="39.00" route="route_2"/>
    <vehicle id="vehicle_43" depart="39.00" route="route_12"/>
    <vehicle id="vehicle_44" depart="39.00" route="route_2"/>
    <vehicle id="vehicle_45" depart="41.00" route="route_2"/>
    <vehicle id="vehicle_46" depart="41.00" route="route_2"/>
    <vehicle id="vehicle_47" depart="42.00" route="route_7"/>
    <vehicle id="vehicle_48" depart="42.00" route="route_7"/>
    <vehicle id="vehicle_49" depart="42.00" route="route_2"/>
    <vehicle id="vehicle_50" depart="42.00" route="route_11"/>
    <vehicle id="vehicle_51" depart="44.00" route="route_2"/>
    <vehicle id="vehicle_52" depart="44.00" route="route_13"/>
    <vehicle id="vehicle_53" depart="46.00" route="route_7"/>
    <vehicle id="vehicle_54" depart="46.00" route="route_2"/>
    <vehicle id="vehicle_55" depart="47.00" route="route_2"/>
    <vehicle id="vehicle_56" depart="47.00" route="route_11"/>
    <vehicle id="vehicle_57" depart="48.00" route="route_7"/>
    <vehicle id="vehicle_58" depart="50.00" route="route_2"/>
    <vehicle id="vehicle_59" depart="50.00" route="route_7"/>
    <vehicle id="vehicle_60" depart="51.00" route="route_7"/>
    <vehicle id="vehicle_61" depart="53.00" route="route_14"/>
    <vehicle id="vehicle_62" depart="55.00" route="route_0"/>
    <vehicle id="vehicle_63" depart="55.00" route="route_7"/>
    <vehicle id="vehicle_64" depart="55.00" route="route_2"/>
    <vehicle id="vehicle_65" depart="55.00" route="route_2"/>
    <vehicle id="vehicle_66" depart="56.00" route="route_14"/>
    <vehicle id="vehicle_67" depart="57.00" route="route_5"/>
    <vehicle id="vehicle_68" depart="57.00" route="route_4"/>
    <vehicle id="vehicle_69" depart="58.00" route="route_15"/>
    <vehicle id="vehicle_70" depart="59.00" route="route_16"/>
    <vehicle id="vehicle_71" depart="60.00" route="route_2"/>
    <vehicle id="vehicle_72" depart="60.00" route="route_15"/>
    <vehicle id="vehicle_73" depart="61.00" route="route_7"/>
    <vehicle id="vehicle_74" depart="61.00" route="route_17"/>
    <vehicle id="vehicle_75" depart="62.00" route="route_7"/>
    <vehicle id="vehicle_76" depart="62.00" route="route_5"/>
    <vehicle id="vehicle_77" depart="62.00" route="route_10"/>
    <vehicle id="vehicle_78" depart="63.00" route="route_7"/>
    <vehicle id="vehicle_79" depart="64.00" route="route_3"/>
    <vehicle id="vehicle_80" depart="65.00" route="route_7"/>
    <vehicle id="vehicle_81" depart="65.00" route="route_2"/>
    <vehicle id="vehicle_82" depart="65.00" route="route_10"/>
    <vehicle id="vehicle_83" depart="66.00" route="route_3"/>
    <vehicle id="vehicle_84" depart="67.00" route="route_2"/>
    <vehicle id="vehicle_85" depart="67.00" route="route_2"/>
    <vehicle id="vehicle_86" depart="68.00" route="route_3"/>
    <vehicle id="vehicle_87" depart="70.00" route="route_3"/>
    <vehicle id="vehicle_88" depart="71.00" route="route_2"/>
    <vehicle id="vehicle_89" depart="71.00" route="route_12"/>
    <vehicle id="vehicle_90" depart="73.00" route="route_7"/>
    <vehicle id="vehicle_91" depart="73.00" route="route_9"/>
    <vehicle id="vehicle_92" depart="73.00" route="route_11"/>
    <vehicle id="vehicle_93" depart="74.00" route="route_18"/>
    <vehicle id="vehicle_94" depart="74.00" route="route_2"/>
    <vehicle id="vehicle_95" depart="74.00" route="route_2"/>
    <vehicle id="vehicle_96" depart="75.00" route="route_2"/>
    <vehicle id="vehicle_97" depart="76.00" route="route_3"/>
    <vehicle id="vehicle_98" depart="76.00" route="route_2"/>
    <vehicle id="vehicle_99" depart="76.00" route="route_7"/>
    <vehicle id="vehicle_100" depart="77.00" route="route_2"/>
    <vehicle id="vehicle_101" depart="78.00" route="route_2"/>
    <vehicle id="vehicle_102" depart="79.00" route="route_0"/>
    <vehicle id="vehicle_103" depart="80.00" route="route_0"/>
    <vehicle id="vehicle_104" depart="80.00" route="route_3"/>
    <vehicle id="vehicle_105" depart="80.00" route="route_12"/>
    <vehicle id="vehicle_106" depart="82.00" route="route_5"/>
    <vehicle id="vehicle_107" depart="83.00" route="route_2"/>
    <vehicle id="vehicle_108" depart="85.00" route="route_3"/>
    <vehicle id="vehicle_109" depart="85.00" route="route_2"/>
    <vehicle id="vehicle_110" depart="85.00" route="route_7"/>
    <vehicle id="vehicle_111" depart="85.00" route="route_5"/>
    <vehicle id="vehicle_112" depart="86.00" route="route_0"/>
    <vehicle id="vehicle_113" depart="87.00" route="route_2"/>
    <vehicle id="vehicle_114" depart="88.00" route="route_2"/>
    <vehicle id="vehicle_115" depart="88.00" route="route_2"/>
    <vehicle id="vehicle_116" depart="89.00" route="route_2"/>
    <vehicle id="vehicle_117" depart="91.00" route="route_2"/>
    <vehicle id="vehicle_118" depart="92.00" route="route_3"/>
    <vehicle id="vehicle_119" depart="92.00" route="route_8"/>
    <vehicle id="vehicle_120" depart="93.00" route="route_7"/>
    <vehicle id="vehicle_121" depart="96.00" route="route_19"/>
    <vehicle id="vehicle_122" depart="98.00" route="route_0"/>
    <vehicle id="vehicle_123" depart="98.00" route="route_5"/>
    <vehicle id="vehicle_124" depart="104.00" route="route_5"/>
    <vehicle id="vehicle_125" depart="106.00" route="route_19"/>
    <vehicle id="vehicle_126" depart="108.00" route="route_18"/>
    <vehicle id="vehicle_127" depart="108.00" route="route_5"/>
    <vehicle id="vehicle_128" depart="111.00" route="route_5"/>
    <vehicle id="vehicle_129" depart="115.00" route="route_20"/>
    <vehicle id="vehicle_130" depart="115.00" route="route_5"/>
    <vehicle id="vehicle_131" depart="117.00" route="route_2"/>
    <vehicle id="vehicle_132" depart="118.00" route="route_8"/>
    <vehicle id="vehicle_133" depart="120.00" route="route_5"/>
    <vehicle id="vehicle_134" depart="120.00" route="route_4"/>
    <vehicle id="vehicle_135" depart="122.00" route="route_3"/>
    <vehicle id="vehicle_136" depart="122.00" route="route_21"/>
    <vehicle id="vehicle_137" depart="122.00" route="route_5"/>
    <vehicle id="vehicle_138" depart="122.00" route="route_4"/>
    <vehicle id="vehicle_139" depart="124.00" route="route_2"/>
    <vehicle id="vehicle_140" depart="124.00" route="route_2"/>
    <vehicle id="vehicle_141" depart="125.00" route="route_8"/>
    <vehicle id="vehicle_142" depart="128.00" route="route_2"/>
    <vehicle id="vehicle_143" depart="128.00" route="route_2"/>
    <vehicle id="vehicle_144" depart="128.00" route="route_5"/>
    <vehicle id="vehicle_145" depart="129.00" route="route_5"/>
    <vehicle id="vehicle_146" depart="129.00" route="route_5"/>
    <vehicle id="vehicle_147" depart="130.00" route="route_0"/>
    <vehicle id="vehicle_148" depart="132.00" route="route_2"/>
    <vehicle id="vehicle_149" depart="132.00" route="route_8"/>
    <vehicle id="vehicle_150" depart="133.00" route="route_5"/>
    <vehicle id="vehicle_151" depart="137.00" route="route_2"/>
    <vehicle id="vehicle_152" depart="138.00" route="route_13"/>
    <vehicle id="vehicle_153" depart="139.00" route="route_5"/>
    <vehicle id="vehicle_154" depart="140.00" route="route_8"/>
    <vehicle id="vehicle_155" depart="142.00" route="route_5"/>
    <vehicle id="vehicle_156" depart="149.00" route="route_5"/>
    <vehicle id="vehicle_157" depart="150.00" route="route_18"/>
    <vehicle id="vehicle_158" depart="151.00" route="route_11"/>
    <vehicle id="vehicle_159" depart="152.00" route="route_5"/>
    <vehicle id="vehicle_160" depart="155.00" route="route_5"/>
    <vehicle id="vehicle_161" depart="157.00" route="route_0"/>
    <vehicle id="vehicle_162" depart="157.00" route="route_0"/>
    <vehicle id="vehicle_163" depart="157.00" route="route_16"/>
    <vehicle id="vehicle_164" depart="159.00" route="route_0"/>
    <vehicle id="vehicle_165" depart="159.00" route="route_0"/>
    <vehicle id="vehicle_166" depart="165.00" route="route_0"/>
    <vehicle id="vehicle_167" depart="166.00" route="route_0"/>
    <vehicle id="vehicle_168" depart="167.00" route="route_5"/>
    <vehicle id="vehicle_169" depart="167.00" route="route_15"/>
    <vehicle id="vehicle_170" depart="168.00" route="route_2"/>
    <vehicle id="vehicle_171" depart="168.00" route="route_7"/>
    <vehicle id="vehicle_172" depart="169.00" route="route_12"/>
    <vehicle id="vehicle_173" depart="170.00" route="route_17"/>
    <vehicle id="vehicle_174" depart="171.00" route="route_13"/>
    <vehicle id="vehicle_175" depart="171.00" route="route_2"/>
    <vehicle id="vehicle_176" depart="171.00" route="route_2"/>
    <vehicle id="vehicle_177" depart="171.00" route="route_7"/>
    <vehicle id="vehicle_178" depart="171.00" route="route_10"/>
    <vehicle id="vehicle_179" depart="172.00" route="route_2"/>
    <vehicle id="vehicle_180" depart="173.00" route="route_2"/>
    <vehicle id="vehicle_181" depart="174.00" route="route_2"/>
    <vehicle id="vehicle_182" depart="175.00" route="route_12"/>
    <vehicle id="vehicle_183" depart="175.00" route="route_2"/>
    <vehicle id="vehicle_184" depart="176.00" route="route_7"/>
    <vehicle id="vehicle_185" depart="176.00" route="route_11"/>
    <vehicle id="vehicle_186" depart="177.00" route="route_0"/>
    <vehicle id="vehicle_187" depart="177.00" route="route_7"/>
    <vehicle id="vehicle_188" depart="177.00" route="route_2"/>
    <vehicle id="vehicle_189" depart="177.00" route="route_2"/>
    <vehicle id="vehicle_190" depart="179.00" route="route_3"/>
    <vehicle id="vehicle_191" depart="179.00" route="route_7"/>
    <vehicle id="vehicle_192" depart="179.00" route="route_2"/>
    <vehicle id="vehicle_193" depart="179.00" route="route_7"/>
    <vehicle id="vehicle_194" depart="179.00" route="route_7"/>
    <vehicle id="vehicle_195" depart="181.00" route="route_7"/>
    <vehicle id="vehicle_196" depart="181.00" route="route_2"/>
    <vehicle id="vehicle_197" depart="181.00" route="route_16"/>
    <vehicle id="vehicle_198" depart="182.00" route="route_7"/>
    <vehicle id="vehicle_199" depart="183.00" route="route_7"/>
    <vehicle id="vehicle_200" depart="185.00" route="route_7"/>
    <vehicle id="vehicle_201" depart="185.00" route="route_7"/>
    <vehicle id="vehicle_202" depart="186.00" route="route_2"/>
    <vehicle id="vehicle_203" depart="186.00" route="route_7"/>
    <vehicle id="vehicle_204" depart="188.00" route="route_22"/>
    <vehicle id="vehicle_205" depart="190.00" route="route_7"/>
    <vehicle id="vehicle_206" depart="190.00" route="route_2"/>
    <vehicle id="vehicle_207" depart="191.00" route="route_7"/>
    <vehicle id="vehicle_208" depart="192.00" route="route_2"/>
    <vehicle id="vehicle_209" depart="193.00" route="route_5"/>
    <vehicle id="vehicle_210" depart="194.00" route="route_7"/>
    <vehicle id="vehicle_211" depart="195.00" route="route_2"/>
    <vehicle id="vehicle_212" depart="196.00" route="route_7"/>
    <vehicle id="vehicle_213" depart="197.00" route="route_7"/>
    <vehicle id="vehicle_214" depart="198.00" route="route_7"/>
    <vehicle id="vehicle_215" depart="198.00" route="route_5"/>
    <vehicle id="vehicle_216" depart="200.00" route="route_17"/>
    <vehicle id="vehicle_217" depart="200.00" route="route_2"/>
    <vehicle id="vehicle_218" depart="201.00" route="route_2"/>
    <vehicle id="vehicle_219" depart="203.00" route="route_2"/>
    <vehicle id="vehicle_220" depart="203.00" route="route_2"/>
    <vehicle id="vehicle_221" depart="203.00" route="route_7"/>
    <vehicle id="vehicle_222" depart="204.00" route="route_18"/>
    <vehicle id="vehicle_223" depart="204.00" route="route_5"/>
    <vehicle id="vehicle_224" depart="204.00" route="route_6"/>
    <vehicle id="vehicle_225" depart="206.00" route="route_7"/>
    <vehicle id="vehicle_226" depart="207.00" route="route_11"/>
    <vehicle id="vehicle_227" depart="208.00" route="route_2"/>
    <vehicle id="vehicle_228" depart="208.00" route="route_10"/>
    <vehicle id="vehicle_229" depart="209.00" route="route_2"/>
    <vehicle id="vehicle_230" depart="210.00" route="route_13"/>
    <vehicle id="vehicle_231" depart="212.00" route="route_7"/>
    <vehicle id="vehicle_232" depart="212.00" route="route_8"/>
    <vehicle id="vehicle_233" depart="213.00" route="route_22"/>
    <vehicle id="vehicle_234" depart="213.00" route="route_7"/>
    <vehicle id="vehicle_235" depart="214.00" route="route_23"/>
    <vehicle id="vehicle_236" depart="215.00" route="route_8"/>
    <vehicle id="vehicle_237" depart="218.00" route="route_4"/>
    <vehicle id="vehicle_238" depart="219.00" route="route_24"/>
    <vehicle id="vehicle_239" depart="220.00" route="route_22"/>
    <vehicle id="vehicle_240" depart="221.00" route="route_8"/>
    <vehicle id="vehicle_241" depart="222.00" route="route_7"/>
    <vehicle id="vehicle_242" depart="222.00" route="route_25"/>
    <vehicle id="vehicle_243" depart="223.00" route="route_3"/>
    <vehicle id="vehicle_244" depart="223.00" route="route_6"/>
    <vehicle id="vehicle_245" depart="225.00" route="route_5"/>
    <vehicle id="vehicle_246" depart="228.00" route="route_8"/>
    <vehicle id="vehicle_247" depart="228.00" route="route_4"/>
    <vehicle id="vehicle_248" depart="229.00" route="route_2"/>
    <vehicle id="vehicle_249" depart="230.00" route="route_12"/>
    <vehicle id="vehicle_250" depart="231.00" route="route_5"/>
    <vehicle id="vehicle_251" depart="233.00" route="route_2"/>
    <vehicle id="vehicle_252" depart="236.00" route="route_5"/>
    <vehicle id="vehicle_253" depart="237.00" route="route_2"/>
    <vehicle id="vehicle_254" depart="237.00" route="route_26"/>
    <vehicle id="vehicle_255" depart="238.00" route="route_5"/>
    <vehicle id="vehicle_256" depart="241.00" route="route_16"/>
    <vehicle id="vehicle_257" depart="241.00" route="route_16"/>
    <vehicle id="vehicle_258" depart="244.00" route="route_16"/>
    <vehicle id="vehicle_259" depart="244.00" route="route_16"/>
    <vehicle id="vehicle_260" depart="244.00" route="route_15"/>
    <vehicle id="vehicle_261" depart="246.00" route="route_0"/>
    <vehicle id="vehicle_262" depart="246.00" route="route_0"/>
    <vehicle id="vehicle_263" depart="246.00" route="route_2"/>
    <vehicle id="vehicle_264" depart="246.00" route="route_2"/>
    <vehicle id="vehicle_265" depart="246.00" route="route_5"/>
    <vehicle id="vehicle_266" depart="246.00" route="route_27"/>
    <vehicle id="vehicle_267" depart="247.00" route="route_28"/>
    <vehicle id="vehicle_268" depart="247.00" route="route_7"/>
    <vehicle id="vehicle_269" depart="247.00" route="route_16"/>
    <vehicle id="vehicle_270" depart="248.00" route="route_7"/>
    <vehicle id="vehicle_271" depart="248.00" route="route_13"/>
    <vehicle id="vehicle_272" depart="248.00" route="route_13"/>
    <vehicle id="vehicle_273" depart="249.00" route="route_0"/>
    <vehicle id="vehicle_274" depart="249.00" route="route_16"/>
    <vehicle id="vehicle_275" depart="251.00" route="route_2"/>
    <vehicle id="vehicle_276" depart="251.00" route="route_7"/>
    <vehicle id="vehicle_277" depart="251.00" route="route_16"/>
    <vehicle id="vehicle_278" depart="252.00" route="route_2"/>
    <vehicle id="vehicle_279" depart="253.00" route="route_0"/>
    <vehicle id="vehicle_280" depart="253.00" route="route_7"/>
    <vehicle id="vehicle_281" depart="253.00" route="route_10"/>
    <vehicle id="vehicle_282" depart="253.00" route="route_5"/>
    <vehicle id="vehicle_283" depart="253.00" route="route_11"/>
    <vehicle id="vehicle_284" depart="254.00" route="route_22"/>
    <vehicle id="vehicle_285" depart="254.00" route="route_2"/>
    <vehicle id="vehicle_286" depart="256.00" route="route_7"/>
    <vehicle id="vehicle_287" depart="257.00" route="route_19"/>
    <vehicle id="vehicle_288" depart="257.00" route="route_2"/>
    <vehicle id="vehicle_289" depart="259.00" route="route_18"/>
    <vehicle id="vehicle_290" depart="261.00" route="route_22"/>
    <vehicle id="vehicle_291" depart="261.00" route="route_17"/>
    <vehicle id="vehicle_292" depart="262.00" route="route_2"/>
    <vehicle id="vehicle_293" depart="262.00" route="route_5"/>
    <vehicle id="vehicle_294" depart="262.00" route="route_11"/>
    <vehicle id="vehicle_295" depart="263.00" route="route_7"/>
    <vehicle id="vehicle_296" depart="264.00" route="route_7"/>
    <vehicle id="vehicle_297" depart="265.00" route="route_12"/>
    <vehicle id="vehicle_298" depart="265.00" route="route_7"/>
    <vehicle id="vehicle_299" depart="265.00" route="route_11"/>
    <vehicle id="vehicle_300" depart="266.00" route="route_2"/>
    <vehicle id="vehicle_301" depart="266.00" route="route_17"/>
    <vehicle id="vehicle_302" depart="266.00" route="route_2"/>
    <vehicle id="vehicle_303" depart="267.00" route="route_21"/>
    <vehicle id="vehicle_304" depart="267.00" route="route_5"/>
    <vehicle id="vehicle_305" depart="268.00" route="route_7"/>
    <vehicle id="vehicle_306" depart="268.00" route="route_2"/>
    <vehicle id="vehicle_307" depart="268.00" route="route_5"/>
    <vehicle id="vehicle_308" depart="270.00" route="route_7"/>
    <vehicle id="vehicle_309" depart="270.00" route="route_7"/>
    <vehicle id="vehicle_310" depart="270.00" route="route_8"/>
    <vehicle id="vehicle_311" depart="271.00" route="route_2"/>
    <vehicle id="vehicle_312" depart="271.00" route="route_2"/>
    <vehicle id="vehicle_313" depart="272.00" route="route_13"/>
    <vehicle id="vehicle_314" depart="272.00" route="route_12"/>
    <vehicle id="vehicle_315" depart="272.00" route="route_7"/>
    <vehicle id="vehicle_316" depart="273.00" route="route_6"/>
    <vehicle id="vehicle_317" depart="274.00" route="route_0"/>
    <vehicle id="vehicle_318" depart="275.00" route="route_7"/>
    <vehicle id="vehicle_319" depart="275.00" route="route_2"/>
    <vehicle id="vehicle_320" depart="275.00" route="route_2"/>
    <vehicle id="vehicle_321" depart="275.00" route="route_2"/>
    <vehicle id="vehicle_322" depart="276.00" route="route_5"/>
    <vehicle id="vehicle_323" depart="277.00" route="route_2"/>
    <vehicle id="vehicle_324" depart="278.00" route="route_2"/>
    <vehicle id="vehicle_325" depart="279.00" route="route_2"/>
    <vehicle id="vehicle_326" depart="279.00" route="route_7"/>
    <vehicle id="vehicle_327" depart="279.00" route="route_5"/>
    <vehicle id="vehicle_328" depart="280.00" route="route_2"/>
    <vehicle id="vehicle_329" depart="281.00" route="route_7"/>
    <vehicle id="vehicle_330" depart="281.00" route="route_2"/>
    <vehicle id="vehicle_331" depart="282.00" route="route_2"/>
    <vehicle id="vehicle_332" depart="282.00" route="route_5"/>
    <vehicle id="vehicle_333" depart="282.00" route="route_11"/>
    <vehicle id="vehicle_334" depart="285.00" route="route_2"/>
    <vehicle id="vehicle_335" depart="285.00" route="route_2"/>
    <vehicle id="vehicle_336" depart="286.00" route="route_5"/>
    <vehicle id="vehicle_337" depart="287.00" route="route_0"/>
    <vehicle id="vehicle_338" depart="287.00" route="route_7"/>
    <vehicle id="vehicle_339" depart="288.00" route="route_4"/>
    <vehicle id="vehicle_340" depart="291.00" route="route_0"/>
    <vehicle id="vehicle_341" depart="300.00" route="route_2"/>
    <vehicle id="vehicle_342" depart="300.00" route="route_5"/>
    <vehicle id="vehicle_343" depart="301.00" route="route_0"/>
    <vehicle id="vehicle_344" depart="301.00" route="route_2"/>
    <vehicle id="vehicle_345" depart="301.00" route="route_13"/>
    <vehicle id="vehicle_346" depart="301.00" route="route_5"/>
    <vehicle id="vehicle_347" depart="302.00" route="route_2"/>
    <vehicle id="vehicle_348" depart="305.00" route="route_2"/>
    <vehicle id="vehicle_349" depart="306.00" route="route_3"/>
    <vehicle id="vehicle_350" depart="306.00" route="route_18"/>
    <vehicle id="vehicle_351" depart="306.00" route="route_2"/>
    <vehicle id="vehicle_352" depart="306.00" route="route_2"/>
    <vehicle id="vehicle_353" depart="306.00" route="route_2"/>
    <vehicle id="vehicle_354" depart="306.00" route="route_5"/>
    <vehicle id="vehicle_355" depart="307.00" route="route_2"/>