<nodes>
	<node id="16" x="2000.0" y="3650.0" />
	<node id="17" x="2150.0" y="3650.0" />
	<node id="18" x="2300.0" y="3650.0" />
	<node id="19" x="2450.0" y="3650.0" />

	<node id="20" x="1850.0" y="3500.0" />
	<node id="21" x="1850.0" y="3350.0" />
	<node id="22" x="1850.0" y="3200.0" />
	<node id="23" x="1850.0" y="3050.0" />

	<node id="24" x="2000.0" y="2900.0" />
	<node id="25" x="2150.0" y="2900.0" />
	<node id="26" x="2300.0" y="2900.0" />
	<node id="27" x="2450.0" y="2900.0" />
	
	<node id="28" x="2600.0" y="3500.0" />
	<node id="29" x="2600.0" y="3350.0" />
	<node id="30" x="2600.0" y="3200.0" />
	<node id="31" x="2600.0" y="3050.0" />

	<node id="0" x="2000.0" y="3500.0" />
	<node id="4" x="2000.0" y="3350.0" />
	<node id="8" x="2000.0" y="3200.0" />
	<node id="12" x="2000.0" y="3050.0" />

	<node id="1" x="2150.0" y="3500.0" />
	<node id="5" x="2150.0" y="3350.0" />
	<node id="9" x="2150.0" y="3200.0" />
	<node id="13" x="2150.0" y="3050.0" />

	<node id="2" x="2300.0" y="3500.0" />
	<node id="6" x="2300.0" y="3350.0" />
	<node id="10" x="2300.0" y="3200.0" />
	<node id="14" x="2300.0" y="3050.0" />

	<node id="3" x="2450.0" y="3500.0" />
	<node id="7" x="2450.0" y="3350.0" />
	<node id="11" x="2450.0" y="3200.0" />
	<node id="15" x="2450.0" y="3050.0" />


	<!-- 
	<node id="E1" x="3000.0" y="3500.0" />
	<node id="E2" x="3000.0" y="3250.0" />
	<node id="E3" x="3000.0" y="3000.0" />
	<node id="E4" x="3000.0" y="2750.0" />

	<node id="F1" x="3250.0" y="3500.0" />
	<node id="F2" x="3250.0" y="3250.0" />
	<node id="F3" x="3250.0" y="3000.0" />
	<node id="F4" x="3250.0" y="2750.0" /> -->
</nodes>
