<?xml version="1.0" encoding="UTF-8"?>

<!-- generated on 2025-02-25 09:33:51 by Eclipse SUMO netedit Version 1.20.0
-->

<routes xmlns:xsi="http://www.w3.org/2001/XMLSchema-instance" xsi:noNamespaceSchemaLocation="http://sumo.dlr.de/xsd/routes_file.xsd">
    <!-- Vehicles, persons and containers (sorted by depart) -->
    <flow id="f_0" begin="0.00" from="E11" to="-E14" end="3600.00" vehsPerHour="300"/>
    <flow id="f_1" begin="0.00" from="E11" to="-E12" end="3600.00" vehsPerHour="300"/>
    <flow id="f_10" begin="0.00" from="E11" to="-E13" end="3600.00" vehsPerHour="600"/>
    <flow id="f_11" begin="0.00" from="E13" to="-E11" end="3600.00" vehsPerHour="600"/>
    <flow id="f_12" begin="0.00" from="E11" to="-E11" end="3600.00" vehsPerHour="5"/>
    <flow id="f_13" begin="0.00" from="E12" to="-E12" end="3600.00" vehsPerHour="5"/>
    <flow id="f_14" begin="0.00" from="E13" to="-E13" end="3600.00" vehsPerHour="5"/>
    <flow id="f_15" begin="0.00" from="E14" to="-E14" end="3600.00" vehsPerHour="5"/>
    <flow id="f_2" begin="0.00" from="E13" to="-E14" end="3600.00" vehsPerHour="300"/>
    <flow id="f_3" begin="0.00" from="E13" to="-E12" end="3600.00" vehsPerHour="300"/>
    <flow id="f_4" begin="0.00" from="E12" to="-E13" end="3600.00" vehsPerHour="300"/>
    <flow id="f_5" begin="0.00" from="E12" to="-E11" end="3600.00" vehsPerHour="300"/>
    <flow id="f_6" begin="0.00" from="E14" to="-E11" end="3600.00" vehsPerHour="300"/>
    <flow id="f_7" begin="0.00" from="E14" to="-E13" end="3600.00" vehsPerHour="300"/>
    <flow id="f_8" begin="0.00" from="E14" to="-E12" end="3600.00" vehsPerHour="600"/>
    <flow id="f_9" begin="0.00" from="E12" to="-E14" end="3600.00" vehsPerHour="600"/>
</routes>
