<nodes>
	<node id="1" x="5000.0" y="7000.0" />
        <node id="5" x="5000.0" y="5000.0" />
	<node id="6" x="6000.0" y="5000.0" />

	<node id="2" x="2000.0" y="4000.0" />
	<node id="7" x="4000.0" y="4000.0" />
	<node id="8" x="5000.0" y="4000.0" />
	<node id="9" x="6000.0" y="4000.0" />
	<node id="10" x="7000.0" y="4000.0" />
	<node id="11" x="8000.0" y="4000.0" />

	<node id="12" x="5000.0" y="3000.0" />
	<node id="13" x="6000.0" y="3000.0" />
	<node id="14" x="7000.0" y="3000.0" />
	<node id="15" x="8000.0" y="3000.0" />
	<node id="3" x="10000.0" y="3000.0" />

	<node id="16" x="6000.0" y="2000.0" />
	<node id="17" x="7000.0" y="2000.0" />

	<node id="4" x="7000.0" y="0.0" />
</nodes>
