<?xml version="1.0" encoding="UTF-8"?>

<!-- generated on 2025-02-26 19:59:30 by Eclipse SUMO netedit Version 1.20.0
<configuration xmlns:xsi="http://www.w3.org/2001/XMLSchema-instance" xsi:noNamespaceSchemaLocation="http://sumo.dlr.de/xsd/neteditConfiguration.xsd">

    <input>
        <sumocfg-file value="/home/refo/Documents/Github/marl/scenarios/fiore/simulation.sumocfg"/>
        <additional-files value=""/>
        <route-files value="/home/refo/Documents/Github/marl/scenarios/fiore/routes.rou.xml"/>
        <sumo-net-file value="/home/refo/Documents/Github/marl/scenarios/fiore/network.net.xml"/>
    </input>

    <output>
        <output-file value="/home/refo/Documents/Github/marl/scenarios/fiore/network.net.xml"/>
    </output>

    <processing>
        <geometry.min-radius.fix.railways value="false"/>
        <geometry.max-grade.fix value="false"/>
        <offset.disable-normalization value="true"/>
        <lefthand value="0"/>
    </processing>

    <junctions>
        <no-turnarounds value="true"/>
        <junctions.corner-detail value="5"/>
        <junctions.limit-turn-speed value="5.50"/>
        <rectangular-lane-cut value="0"/>
    </junctions>

    <pedestrian>
        <walkingareas value="0"/>
    </pedestrian>

</configuration>
-->

<net version="1.20" junctionCornerDetail="5" limitTurnSpeed="5.50" xmlns:xsi="http://www.w3.org/2001/XMLSchema-instance" xsi:noNamespaceSchemaLocation="http://sumo.dlr.de/xsd/net_file.xsd">

    <location netOffset="0.00,0.00" convBoundary="-336.23,-461.91,2791.84,530.97" origBoundary="-10000000000.00,-10000000000.00,10000000000.00,10000000000.00" projParameter="!"/>

    <edge id=":J0_0" function="internal">
        <lane id=":J0_0_0" index="0" speed="13.89" length="11.05" shape="-18.31,17.93 -17.95,6.88"/>
    </edge>
    <edge id=":J0_1" function="internal">
        <lane id=":J0_1_0" index="0" speed="6.55" length="8.99" shape="-18.31,17.93 -17.91,15.53 -16.82,13.82 -15.05,12.79 -12.59,12.44"/>
    </edge>
    <edge id=":J1_0" function="internal">
        <lane id=":J1_0_0" index="0" allow="custom1" speed="6.38" length="9.04" shape="131.52,6.44 131.69,8.93 132.63,10.72 134.34,11.81 136.80,12.20"/>
    </edge>
    <edge id=":J1_1" function="internal">
        <lane id=":J1_1_0" index="0" speed="13.89" length="11.31" shape="131.52,6.44 130.91,17.73"/>
    </edge>
    <edge id=":J1_2" function="internal">
        <lane id=":J1_2_0" index="0" speed="6.79" length="9.38" shape="122.42,12.12 124.84,11.74 126.64,10.63 127.80,8.79 128.33,6.21"/>
    </edge>
    <edge id=":J1_3" function="internal">
        <lane id=":J1_3_0" index="0" allow="custom1" speed="13.89" length="14.39" shape="122.42,12.12 136.80,12.20"/>
    </edge>
    <edge id=":J1_4" function="internal">
        <lane id=":J1_4_0" index="0" speed="7.21" length="7.40" shape="122.42,12.12 126.17,12.46 128.84,13.51 129.35,14.08"/>
    </edge>
    <edge id=":J1_5" function="internal">
        <lane id=":J1_5_0" index="0" speed="7.21" length="4.11" shape="129.35,14.08 130.42,15.27 130.91,17.73"/>
    </edge>
    <edge id=":J10_0" function="internal">
        <lane id=":J10_0_0" index="0" speed="13.89" length="11.08" shape="-20.63,75.66 -20.15,64.59"/>
    </edge>
    <edge id=":J10_1" function="internal">
        <lane id=":J10_1_0" index="0" speed="6.55" length="9.02" shape="-20.63,75.66 -20.22,73.26 -19.11,71.55 -17.33,70.53 -14.85,70.20"/>
    </edge>
    <edge id=":J11_0" function="internal">
        <lane id=":J11_0_0" index="0" allow="custom1" speed="6.41" length="9.04" shape="129.13,65.12 129.36,67.60 130.33,69.37 132.05,70.44 134.52,70.81"/>
    </edge>
    <edge id=":J11_1" function="internal">
        <lane id=":J11_1_0" index="0" speed="13.89" length="11.35" shape="129.13,65.12 128.96,68.29 128.86,70.79 128.84,73.28 128.93,76.46"/>
    </edge>
    <edge id=":J11_2" function="internal">
        <lane id=":J11_2_0" index="0" allow="custom1" speed="13.89" length="11.35" shape="123.17,70.76 134.52,70.81"/>
    </edge>
    <edge id=":J11_3" function="internal">
        <lane id=":J11_3_0" index="0" speed="6.65" length="4.21" shape="123.17,70.76 125.60,71.13 127.10,72.03"/>
    </edge>
    <edge id=":J11_4" function="internal">
        <lane id=":J11_4_0" index="0" speed="6.65" length="4.94" shape="127.10,72.03 127.37,72.20 128.48,73.97 128.93,76.46"/>
    </edge>
    <edge id=":J12_0" function="internal">
        <lane id=":J12_0_0" index="0" allow="custom1" speed="13.89" length="11.21" shape="135.89,110.12 124.67,110.11"/>
    </edge>
    <edge id=":J12_1" function="internal">
        <lane id=":J12_1_0" index="0" allow="custom1" speed="6.41" length="4.16" shape="130.11,104.47 129.86,106.95 129.05,108.40"/>
    </edge>
    <edge id=":J12_2" function="internal">
        <lane id=":J12_2_0" index="0" allow="custom1" speed="6.41" length="4.88" shape="129.05,108.40 128.87,108.71 127.14,109.77 124.67,110.11"/>
    </edge>
    <edge id=":J13_0" function="internal">
        <lane id=":J13_0_0" index="0" allow="custom1" speed="13.89" length="11.34" shape="-15.85,109.54 -27.18,109.51"/>
    </edge>
    <edge id=":J13_1" function="internal">
        <lane id=":J13_1_0" index="0" allow="custom1" speed="6.46" length="4.22" shape="-15.85,109.54 -18.30,109.17 -19.78,108.27"/>
    </edge>
    <edge id=":J13_4" function="internal">
        <lane id=":J13_4_0" index="0" allow="custom1" speed="6.46" length="4.82" shape="-19.78,108.27 -20.04,108.11 -21.05,106.35 -21.34,103.88"/>
    </edge>
    <edge id=":J13_2" function="internal">
        <lane id=":J13_2_0" index="0" allow="custom1" speed="6.42" length="9.04" shape="-21.76,115.18 -22.01,112.70 -22.99,110.93 -24.72,109.87 -27.18,109.51"/>
    </edge>
    <edge id=":J13_3" function="internal">
        <lane id=":J13_3_0" index="0" speed="13.89" length="11.31" shape="-21.76,115.18 -21.34,103.88"/>
    </edge>
    <edge id=":J14_0" function="internal">
        <lane id=":J14_0_0" index="0" allow="custom1" speed="6.59" length="8.74" shape="278.19,71.36 280.59,71.05 282.36,70.09 283.51,68.47 284.03,66.21"/>
    </edge>
    <edge id=":J14_1" function="internal">
        <lane id=":J14_1_0" index="0" allow="custom1" speed="13.89" length="10.56" shape="283.33,76.75 284.03,66.21"/>
    </edge>
    <edge id=":J15_0" function="internal">
        <lane id=":J15_0_0" index="0" allow="custom1" speed="13.89" length="11.41" shape="287.57,109.83 276.16,109.83"/>
    </edge>
    <edge id=":J15_1" function="internal">
        <lane id=":J15_1_0" index="0" allow="custom1" speed="6.42" length="4.25" shape="287.57,109.83 285.10,109.47 283.60,108.54"/>
    </edge>
    <edge id=":J15_4" function="internal">
        <lane id=":J15_4_0" index="0" allow="custom1" speed="6.42" length="4.78" shape="283.60,108.54 283.38,108.40 282.39,106.63 282.14,104.15"/>
    </edge>
    <edge id=":J15_2" function="internal">
        <lane id=":J15_2_0" index="0" allow="custom1" speed="6.37" length="9.04" shape="281.51,115.52 281.31,113.03 280.35,111.25 278.63,110.19 276.16,109.83"/>
    </edge>
    <edge id=":J15_3" function="internal">
        <lane id=":J15_3_0" index="0" allow="custom1" speed="13.89" length="11.38" shape="281.51,115.52 282.14,104.15"/>
    </edge>
    <edge id=":J16_0" function="internal">
        <lane id=":J16_0_0" index="0" speed="13.89" length="13.01" shape="-18.45,171.19 -21.86,170.95 -24.84,170.30 -27.77,169.34 -31.00,168.12"/>
    </edge>
    <edge id=":J16_1" function="internal">
        <lane id=":J16_1_0" index="0" speed="7.53" length="2.73" shape="-18.45,171.19 -20.95,170.55 -21.05,170.45"/>
    </edge>
    <edge id=":J16_4" function="internal">
        <lane id=":J16_4_0" index="0" speed="7.53" length="10.12" shape="-21.05,170.45 -22.68,168.65 -23.63,165.51 -23.80,161.10"/>
    </edge>
    <edge id=":J16_2" function="internal">
        <lane id=":J16_2_0" index="0" speed="5.93" length="9.09" shape="-29.88,165.13 -27.32,165.69 -25.45,165.21 -24.28,163.68 -23.80,161.10"/>
    </edge>
    <edge id=":J16_3" function="internal">
        <lane id=":J16_3_0" index="0" speed="13.89" length="11.89" shape="-29.88,165.13 -26.82,166.31 -24.28,167.21 -21.67,167.78 -18.43,167.99"/>
    </edge>
    <edge id=":J17_0" function="internal">
        <lane id=":J17_0_0" index="0" speed="13.89" length="10.76" shape="283.60,172.39 272.84,172.36"/>
    </edge>
    <edge id=":J17_1" function="internal">
        <lane id=":J17_1_0" index="0" speed="7.10" length="2.51" shape="283.60,172.39 281.15,171.85"/>
    </edge>
    <edge id=":J17_4" function="internal">
        <lane id=":J17_4_0" index="0" speed="7.10" length="8.97" shape="281.15,171.85 279.48,170.22 278.59,167.52 278.47,163.73"/>
    </edge>
    <edge id=":J17_2" function="internal">
        <lane id=":J17_2_0" index="0" speed="6.57" length="8.81" shape="272.85,169.16 275.18,168.83 276.89,167.81 277.99,166.11 278.47,163.73"/>
    </edge>
    <edge id=":J17_3" function="internal">
        <lane id=":J17_3_0" index="0" speed="13.89" length="10.75" shape="272.85,169.16 283.60,169.19"/>
    </edge>
    <edge id=":J18_0" function="internal">
        <lane id=":J18_0_0" index="0" speed="7.86" length="10.94" shape="-88.24,116.08 -89.36,113.15 -90.98,111.05 -93.11,109.78 -95.75,109.34"/>
    </edge>
    <edge id=":J18_1" function="internal">
        <lane id=":J18_1_0" index="0" speed="13.89" length="15.53" shape="-88.24,116.08 -89.06,112.33 -89.64,108.44 -89.91,104.52 -89.85,100.69"/>
    </edge>
    <edge id=":J18_2" function="internal">
        <lane id=":J18_2_0" index="0" allow="custom1" speed="6.03" length="9.07" shape="-80.59,109.41 -83.15,109.78 -84.76,110.88 -85.42,112.71 -85.14,115.28"/>
    </edge>
    <edge id=":J18_3" function="internal">
        <lane id=":J18_3_0" index="0" allow="custom1" speed="13.89" length="15.16" shape="-80.59,109.41 -95.75,109.34"/>
    </edge>
    <edge id=":J18_4" function="internal">
        <lane id=":J18_4_0" index="0" allow="custom1" speed="7.95" length="14.71" shape="-80.59,109.41 -84.86,108.86 -87.82,107.23 -89.49,104.50 -89.85,100.69"/>
    </edge>
    <edge id=":J18_5" function="internal">
        <lane id=":J18_5_0" index="0" speed="13.89" length="14.51" shape="-86.65,100.91 -86.73,104.58 -86.49,108.15 -85.95,111.69 -85.14,115.28"/>
    </edge>
    <edge id=":J18_6" function="internal">
        <lane id=":J18_6_0" index="0" speed="8.12" length="3.67" shape="-86.65,100.91 -87.41,104.50"/>
    </edge>
    <edge id=":J18_9" function="internal">
        <lane id=":J18_9_0" index="0" speed="8.12" length="10.30" shape="-87.41,104.50 -87.44,104.62 -89.21,107.27 -91.98,108.84 -95.75,109.34"/>
    </edge>
    <edge id=":J18_7" function="internal">
        <lane id=":J18_7_0" index="0" speed="6.64" length="9.03" shape="-95.72,106.14 -93.29,105.82 -91.50,104.80 -90.35,103.09 -89.85,100.69"/>
    </edge>
    <edge id=":J18_8" function="internal">
        <lane id=":J18_8_0" index="0" speed="9.16" length="15.18" shape="-95.72,106.14 -91.97,106.74 -88.95,108.46 -86.68,111.31 -85.14,115.28"/>
    </edge>
    <edge id=":J19_0" function="internal">
        <lane id=":J19_0_0" index="0" speed="13.89" length="0.42" shape="-14.25,-107.69 -14.37,-107.69 -14.45,-107.68 -14.54,-107.67 -14.66,-107.64"/>
    </edge>
    <edge id=":J19_1" function="internal">
        <lane id=":J19_1_0" index="0" speed="13.89" length="1.25" shape="-15.49,-110.73 -15.13,-110.82 -14.88,-110.87 -14.63,-110.89 -14.26,-110.89"/>
    </edge>
    <edge id=":J2_0" function="internal">
        <lane id=":J2_0_0" index="0" allow="custom1" speed="6.58" length="8.98" shape="135.94,38.90 133.52,39.23 131.75,40.24 130.63,41.95 130.17,44.35"/>
    </edge>
    <edge id=":J2_1" function="internal">
        <lane id=":J2_1_0" index="0" allow="custom1" speed="13.89" length="11.02" shape="135.94,38.90 124.92,38.83"/>
    </edge>
    <edge id=":J2_2" function="internal">
        <lane id=":J2_2_0" index="0" speed="13.89" length="10.96" shape="130.60,33.40 130.17,44.35"/>
    </edge>
    <edge id=":J2_3" function="internal">
        <lane id=":J2_3_0" index="0" speed="6.51" length="3.97" shape="130.60,33.40 130.20,35.78 129.37,37.09"/>
    </edge>
    <edge id=":J2_4" function="internal">
        <lane id=":J2_4_0" index="0" speed="6.51" length="4.95" shape="129.37,37.09 129.12,37.48 127.36,38.50 124.92,38.83"/>
    </edge>
    <edge id=":J20_0" function="internal">
        <lane id=":J20_0_0" index="0" speed="6.88" length="9.53" shape="780.35,-104.41 777.78,-104.06 775.87,-102.99 774.62,-101.21 774.03,-98.70"/>
    </edge>
    <edge id=":J20_1" function="internal">
        <lane id=":J20_1_0" index="0" speed="13.89" length="14.42" shape="780.35,-104.41 765.93,-104.47"/>
    </edge>
    <edge id=":J20_2" function="internal">
        <lane id=":J20_2_0" index="0" speed="7.97" length="4.09" shape="780.35,-104.41 776.47,-104.98 776.32,-105.07"/>
    </edge>
    <edge id=":J20_9" function="internal">
        <lane id=":J20_9_0" index="0" speed="7.97" length="10.17" shape="776.32,-105.07 773.73,-106.65 772.12,-109.44 771.65,-113.33"/>
    </edge>
    <edge id=":J20_3" function="internal">
        <lane id=":J20_3_0" index="0" speed="6.46" length="9.03" shape="774.85,-113.26 775.15,-110.79 776.17,-109.03 777.90,-107.97 780.36,-107.61"/>
    </edge>
    <edge id=":J20_4" function="internal">
        <lane id=":J20_4_0" index="0" speed="13.89" length="14.58" shape="774.85,-113.26 774.03,-98.70"/>
    </edge>
    <edge id=":J20_5" function="internal">
        <lane id=":J20_5_0" index="0" speed="8.06" length="14.22" shape="774.85,-113.26 774.22,-109.39 772.52,-106.64 769.76,-105.00 765.93,-104.47"/>
    </edge>
    <edge id=":J20_6" function="internal">
        <lane id=":J20_6_0" index="0" speed="6.57" length="9.12" shape="765.95,-107.67 768.40,-108.01 770.16,-109.07 771.25,-110.84 771.65,-113.33"/>
    </edge>
    <edge id=":J20_7" function="internal">
        <lane id=":J20_7_0" index="0" speed="13.89" length="14.41" shape="765.95,-107.67 780.36,-107.61"/>
    </edge>
    <edge id=":J20_8" function="internal">
        <lane id=":J20_8_0" index="0" speed="7.73" length="4.01" shape="765.95,-107.67 769.79,-107.09 769.90,-107.02"/>
    </edge>
    <edge id=":J20_10" function="internal">
        <lane id=":J20_10_0" index="0" speed="7.73" length="10.03" shape="769.90,-107.02 772.42,-105.40 773.83,-102.61 774.03,-98.70"/>
    </edge>
    <edge id=":J21_0" function="internal">
        <lane id=":J21_0_0" index="0" speed="6.75" length="9.45" shape="143.61,-108.30 141.09,-107.95 139.24,-106.86 138.08,-105.04 137.59,-102.48"/>
    </edge>
    <edge id=":J21_1" function="internal">
        <lane id=":J21_1_0" index="0" speed="13.89" length="14.61" shape="143.61,-108.30 128.99,-108.31"/>
    </edge>
    <edge id=":J21_2" function="internal">
        <lane id=":J21_2_0" index="0" speed="7.98" length="4.04" shape="143.61,-108.30 139.74,-108.87 139.63,-108.94"/>
    </edge>
    <edge id=":J21_12" function="internal">
        <lane id=":J21_12_0" index="0" speed="7.98" length="10.21" shape="139.63,-108.94 137.00,-110.55 135.39,-113.34 134.92,-117.22"/>
    </edge>
    <edge id=":J21_3" function="internal">
        <lane id=":J21_3_0" index="0" speed="6.48" length="9.03" shape="138.12,-117.15 138.42,-114.69 139.44,-112.93 141.17,-111.86 143.63,-111.50"/>
    </edge>
    <edge id=":J21_4" function="internal">
        <lane id=":J21_4_0" index="0" speed="13.89" length="14.68" shape="138.12,-117.15 137.59,-102.48"/>
    </edge>
    <edge id=":J21_5" function="internal">
        <lane id=":J21_5_0" index="0" speed="8.13" length="4.19" shape="138.12,-117.15 137.48,-113.30 137.33,-113.06"/>
    </edge>
    <edge id=":J21_13" function="internal">
        <lane id=":J21_13_0" index="0" speed="8.13" length="10.22" shape="137.33,-113.06 135.75,-110.54 132.92,-108.88 128.99,-108.31"/>
    </edge>
    <edge id=":J21_6" function="internal">
        <lane id=":J21_6_0" index="0" speed="6.67" length="9.35" shape="128.98,-111.51 131.53,-111.87 133.38,-112.95 134.50,-114.73 134.92,-117.22"/>
    </edge>
    <edge id=":J21_7" function="internal">
        <lane id=":J21_7_0" index="0" speed="13.89" length="14.65" shape="128.98,-111.51 143.63,-111.50"/>
    </edge>
    <edge id=":J21_8" function="internal">
        <lane id=":J21_8_0" index="0" speed="7.90" length="4.15" shape="128.98,-111.51 132.92,-110.96 133.07,-110.87"/>
    </edge>
    <edge id=":J21_14" function="internal">
        <lane id=":J21_14_0" index="0" speed="7.90" length="10.26" shape="133.07,-110.87 135.67,-109.27 137.22,-106.45 137.59,-102.48"/>
    </edge>
    <edge id=":J21_9" function="internal">
        <lane id=":J21_9_0" index="0" speed="6.39" length="9.04" shape="134.39,-102.65 134.16,-105.13 133.19,-106.91 131.46,-107.96 128.99,-108.31"/>
    </edge>
    <edge id=":J21_10" function="internal">
        <lane id=":J21_10_0" index="0" speed="13.89" length="14.58" shape="134.39,-102.65 134.92,-117.22"/>
    </edge>
    <edge id=":J21_11" function="internal">
        <lane id=":J21_11_0" index="0" speed="8.20" length="3.96" shape="134.39,-102.65 135.14,-106.54"/>
    </edge>
    <edge id=":J21_15" function="internal">
        <lane id=":J21_15_0" index="0" speed="8.20" length="10.48" shape="135.14,-106.54 136.93,-109.31 139.76,-110.96 143.63,-111.50"/>
    </edge>
    <edge id=":J22_0" function="internal">
        <lane id=":J22_0_0" index="0" speed="6.55" length="8.86" shape="759.49,60.35 759.61,62.80 760.44,64.64 762.01,65.90 764.30,66.56"/>
    </edge>
    <edge id=":J22_1" function="internal">
        <lane id=":J22_1_0" index="0" allow="custom1" speed="13.89" length="10.89" shape="753.47,65.53 756.57,65.64 758.90,65.83 761.22,66.13 764.30,66.56"/>
    </edge>
    <edge id=":J23_0" function="internal">
        <lane id=":J23_0_0" index="0" allow="custom1" speed="13.89" length="0.30" shape="754.58,110.49 754.28,110.49"/>
    </edge>
    <edge id=":J24_0" function="internal">
        <lane id=":J24_0_0" index="0" allow="custom1" speed="13.89" length="0.30" shape="423.80,47.94 424.09,47.97"/>
    </edge>
    <edge id=":J25_0" function="internal">
        <lane id=":J25_0_0" index="0" allow="custom1" speed="13.89" length="0.11" shape="584.91,62.08 585.02,62.08"/>
    </edge>
    <edge id=":J26_0" function="internal">
        <lane id=":J26_0_0" index="0" speed="13.89" length="11.21" shape="766.11,-12.11 765.09,-0.95"/>
    </edge>
    <edge id=":J26_1" function="internal">
        <lane id=":J26_1_0" index="0" speed="6.35" length="4.24" shape="759.88,-6.74 762.36,-6.34 763.81,-5.40"/>
    </edge>
    <edge id=":J26_2" function="internal">
        <lane id=":J26_2_0" index="0" speed="6.35" length="4.80" shape="763.81,-5.40 764.05,-5.25 764.96,-3.45 765.09,-0.95"/>
    </edge>
    <edge id=":J27_0" function="internal">
        <lane id=":J27_0_0" index="0" speed="13.89" length="10.53" shape="763.78,13.46 762.82,23.95"/>
    </edge>
    <edge id=":J27_1" function="internal">
        <lane id=":J27_1_0" index="0" allow="custom1" speed="6.60" length="8.70" shape="763.78,13.46 763.23,15.69 762.07,17.28 760.30,18.24 757.90,18.55"/>
    </edge>
    <edge id=":J28_0" function="internal">
        <lane id=":J28_0_0" index="0" speed="6.53" length="9.10" shape="1056.96,109.02 1054.51,109.33 1052.74,110.36 1051.65,112.12 1051.25,114.60"/>
    </edge>
    <edge id=":J28_1" function="internal">
        <lane id=":J28_1_0" index="0" allow="custom1" speed="13.89" length="14.43" shape="1056.96,109.02 1042.54,108.92"/>
    </edge>
    <edge id=":J28_2" function="internal">
        <lane id=":J28_2_0" index="0" speed="13.89" length="14.52" shape="1042.56,104.67 1046.21,105.13 1049.78,105.47 1053.36,105.70 1057.03,105.83"/>
    </edge>
    <edge id=":J28_3" function="internal">
        <lane id=":J28_3_0" index="0" speed="8.49" length="5.17" shape="1042.56,104.67 1046.43,105.75 1047.36,106.43"/>
    </edge>
    <edge id=":J28_6" function="internal">
        <lane id=":J28_6_0" index="0" speed="8.49" length="9.52" shape="1047.36,106.43 1049.17,107.76 1050.77,110.71 1051.25,114.60"/>
    </edge>
    <edge id=":J28_4" function="internal">
        <lane id=":J28_4_0" index="0" allow="custom1" speed="6.45" length="9.02" shape="1048.05,114.53 1047.75,112.06 1046.73,110.31 1044.99,109.26 1042.54,108.92"/>
    </edge>
    <edge id=":J28_5" function="internal">
        <lane id=":J28_5_0" index="0" speed="8.02" length="14.26" shape="1048.05,114.53 1048.68,110.66 1050.39,107.91 1053.17,106.30 1057.03,105.83"/>
    </edge>
    <edge id=":J29_0" function="internal">
        <lane id=":J29_0_0" index="0" speed="6.59" length="9.13" shape="1261.90,112.69 1259.47,113.10 1257.74,114.21 1256.70,116.02 1256.36,118.52"/>
    </edge>
    <edge id=":J29_1" function="internal">
        <lane id=":J29_1_0" index="0" speed="13.89" length="17.67" shape="1261.90,112.69 1244.23,112.79"/>
    </edge>
    <edge id=":J29_2" function="internal">
        <lane id=":J29_2_0" index="0" speed="8.59" length="5.76" shape="1261.90,112.69 1256.67,112.26 1256.20,112.06"/>
    </edge>
    <edge id=":J29_10" function="internal">
        <lane id=":J29_10_0" index="0" speed="8.59" length="11.05" shape="1256.20,112.06 1252.92,110.68 1250.68,107.94 1249.93,104.06"/>
    </edge>
    <edge id=":J29_3" function="internal">
        <lane id=":J29_3_0" index="0" speed="7.22" length="11.59" shape="1253.13,104.06 1253.67,106.51 1255.30,108.24 1258.02,109.23 1261.82,109.49"/>
    </edge>
    <edge id=":J29_4" function="internal">
        <lane id=":J29_4_0" index="0" speed="13.89" length="14.68" shape="1253.13,104.06 1253.63,107.39 1254.73,110.39 1255.84,113.84 1256.36,118.52"/>
        <lane id=":J29_4_1" index="1" speed="13.89" length="14.68" shape="1253.13,104.06 1253.16,118.53"/>
    </edge>
    <edge id=":J29_6" function="internal">
        <lane id=":J29_6_0" index="0" speed="7.97" length="14.28" shape="1253.13,104.06 1252.57,107.95 1250.91,110.70 1248.13,112.31 1244.23,112.79"/>
    </edge>
    <edge id=":J29_7" function="internal">
        <lane id=":J29_7_0" index="0" speed="6.47" length="9.04" shape="1244.30,109.59 1246.76,109.29 1248.52,108.27 1249.58,106.52 1249.93,104.06"/>
    </edge>
    <edge id=":J29_8" function="internal">
        <lane id=":J29_8_0" index="0" speed="13.89" length="17.53" shape="1244.30,109.59 1261.82,109.49"/>
    </edge>
    <edge id=":J29_9" function="internal">
        <lane id=":J29_9_0" index="0" speed="8.10" length="3.91" shape="1244.30,109.59 1248.16,110.22"/>
    </edge>
    <edge id=":J29_11" function="internal">
        <lane id=":J29_11_0" index="0" speed="8.10" length="10.37" shape="1248.16,110.22 1250.93,111.92 1252.59,114.69 1253.16,118.53"/>
    </edge>
    <edge id=":J3_0" function="internal">
        <lane id=":J3_0_0" index="0" speed="6.48" length="4.27" shape="-13.10,38.61 -15.56,38.25 -17.08,37.31"/>
    </edge>
    <edge id=":J3_2" function="internal">
        <lane id=":J3_2_0" index="0" speed="6.48" length="4.81" shape="-17.08,37.31 -17.30,37.18 -18.32,35.40 -18.62,32.92"/>
    </edge>
    <edge id=":J3_1" function="internal">
        <lane id=":J3_1_0" index="0" speed="13.89" length="11.20" shape="-19.08,44.11 -18.62,32.92"/>
    </edge>
    <edge id=":J30_0" function="internal">
        <lane id=":J30_0_0" index="0" speed="6.68" length="9.29" shape="1249.93,-29.46 1249.56,-31.90 1248.47,-33.67 1246.64,-34.78 1244.08,-35.23"/>
    </edge>
    <edge id=":J30_1" function="internal">
        <lane id=":J30_1_0" index="0" speed="13.89" length="14.44" shape="1249.93,-29.46 1249.78,-43.90"/>
    </edge>
    <edge id=":J30_2" function="internal">
        <lane id=":J30_2_0" index="0" speed="13.89" length="14.50" shape="1252.98,-43.97 1253.13,-29.46"/>
    </edge>
    <edge id=":J30_3" function="internal">
        <lane id=":J30_3_0" index="0" speed="7.90" length="4.19" shape="1252.98,-43.97 1252.49,-40.01 1252.39,-39.83"/>
    </edge>
    <edge id=":J30_6" function="internal">
        <lane id=":J30_6_0" index="0" speed="7.90" length="10.23" shape="1252.39,-39.83 1250.85,-37.24 1248.04,-35.64 1244.08,-35.23"/>
    </edge>
    <edge id=":J30_4" function="internal">
        <lane id=":J30_4_0" index="0" speed="6.38" length="9.04" shape="1244.20,-38.43 1246.69,-38.69 1248.44,-39.68 1249.48,-41.42 1249.78,-43.90"/>
    </edge>
    <edge id=":J30_5" function="internal">
        <lane id=":J30_5_0" index="0" speed="8.15" length="14.30" shape="1244.20,-38.43 1248.11,-37.74 1250.90,-36.01 1252.57,-33.25 1253.13,-29.46"/>
    </edge>
    <edge id=":J31_0" function="internal">
        <lane id=":J31_0_0" index="0" speed="6.72" length="9.30" shape="775.77,-53.54 773.18,-53.30 771.26,-52.34 770.01,-50.67 769.42,-48.28"/>
    </edge>
    <edge id=":J31_1" function="internal">
        <lane id=":J31_1_0" index="0" speed="6.40" length="9.04" shape="770.73,-62.62 770.86,-60.13 771.77,-58.32 773.44,-57.19 775.90,-56.74"/>
    </edge>
    <edge id=":J31_2" function="internal">
        <lane id=":J31_2_0" index="0" speed="13.89" length="14.41" shape="770.73,-62.62 769.42,-48.28"/>
    </edge>
    <edge id=":J32_0" function="internal">
        <lane id=":J32_0_0" index="0" speed="6.51" length="9.03" shape="1043.67,178.61 1043.32,176.16 1042.27,174.41 1040.52,173.36 1038.07,173.01"/>
    </edge>
    <edge id=":J32_1" function="internal">
        <lane id=":J32_1_0" index="0" speed="13.89" length="14.36" shape="1046.87,178.61 1047.02,164.25"/>
    </edge>
    <edge id=":J32_2" function="internal">
        <lane id=":J32_2_0" index="0" speed="8.73" length="16.83" shape="1050.22,164.32 1049.39,168.13 1047.09,170.84 1043.32,172.47 1038.07,173.01"/>
    </edge>
    <edge id=":J32_3" function="internal">
        <lane id=":J32_3_0" index="0" speed="7.39" length="11.78" shape="1038.08,169.81 1041.95,169.47 1044.73,168.43 1046.42,166.69 1047.02,164.25"/>
    </edge>
    <edge id=":J33_0" function="internal">
        <lane id=":J33_0_0" index="0" speed="6.54" length="8.97" shape="1248.69,-97.53 1248.30,-99.96 1247.23,-101.69 1245.49,-102.74 1243.07,-103.09"/>
    </edge>
    <edge id=":J33_1" function="internal">
        <lane id=":J33_1_0" index="0" speed="8.00" length="14.06" shape="1248.69,-97.53 1249.16,-101.35 1250.73,-104.12 1253.41,-105.84 1257.20,-106.51"/>
    </edge>
    <edge id=":J33_2" function="internal">
        <lane id=":J33_2_0" index="0" speed="6.51" length="8.94" shape="1257.30,-103.31 1254.90,-102.88 1253.19,-101.79 1252.19,-100.03 1251.89,-97.60"/>
    </edge>
    <edge id=":J33_3" function="internal">
        <lane id=":J33_3_0" index="0" speed="13.89" length="14.23" shape="1257.30,-103.31 1243.07,-103.09"/>
    </edge>
    <edge id=":J33_4" function="internal">
        <lane id=":J33_4_0" index="0" speed="13.89" length="14.12" shape="1243.08,-106.29 1257.20,-106.51"/>
    </edge>
    <edge id=":J33_5" function="internal">
        <lane id=":J33_5_0" index="0" speed="8.03" length="3.83" shape="1243.08,-106.29 1246.87,-105.74"/>
    </edge>
    <edge id=":J33_6" function="internal">
        <lane id=":J33_6_0" index="0" speed="8.03" length="10.21" shape="1246.87,-105.74 1249.60,-104.11 1251.28,-101.39 1251.89,-97.60"/>
    </edge>
    <edge id=":J34_0" function="internal">
        <lane id=":J34_0_0" index="0" speed="13.89" length="27.11" shape="1571.18,-105.54 1565.86,-107.51 1558.31,-110.02 1550.70,-112.15 1545.18,-112.98"/>
    </edge>
    <edge id=":J34_1" function="internal">
        <lane id=":J34_1_0" index="0" speed="12.84" length="27.50" shape="1571.18,-105.54 1562.17,-109.65 1555.75,-113.77 1551.91,-117.90 1550.67,-122.05"/>
    </edge>
    <edge id=":J34_2" function="internal">
        <lane id=":J34_2_0" index="0" speed="6.11" length="2.38" shape="1571.18,-105.54 1569.41,-107.14"/>
    </edge>
    <edge id=":J34_12" function="internal">
        <lane id=":J34_12_0" index="0" speed="6.11" length="12.67" shape="1569.41,-107.14 1568.28,-108.17 1567.85,-111.75 1569.60,-114.91 1573.28,-116.25"/>
    </edge>
    <edge id=":J34_3" function="internal">
        <lane id=":J34_3_0" index="0" speed="5.81" length="13.38" shape="1573.25,-113.05 1568.49,-112.80 1566.76,-111.97 1568.05,-110.54 1572.36,-108.51"/>
    </edge>
    <edge id=":J34_4" function="internal">
        <lane id=":J34_4_0" index="0" speed="13.89" length="28.07" shape="1573.25,-113.05 1545.18,-112.98"/>
    </edge>
    <edge id=":J34_5" function="internal">
        <lane id=":J34_5_0" index="0" speed="10.49" length="9.85" shape="1573.25,-113.05 1566.30,-113.86 1563.56,-114.62"/>
    </edge>
    <edge id=":J34_13" function="internal">
        <lane id=":J34_13_0" index="0" speed="10.49" length="15.39" shape="1563.56,-114.62 1558.90,-115.92 1553.03,-118.79 1550.67,-122.05"/>
    </edge>
    <edge id=":J34_6" function="internal">
        <lane id=":J34_6_0" index="0" speed="9.72" length="21.48" shape="1553.87,-122.01 1555.05,-119.55 1558.69,-117.77 1564.76,-116.67 1573.28,-116.25"/>
    </edge>
    <edge id=":J34_7" function="internal">
        <lane id=":J34_7_0" index="0" speed="11.96" length="23.74" shape="1553.87,-122.01 1555.00,-118.88 1558.45,-115.58 1564.24,-112.13 1572.36,-108.51"/>
    </edge>
    <edge id=":J34_8" function="internal">
        <lane id=":J34_8_0" index="0" speed="8.12" length="1.50" shape="1553.87,-122.01 1553.64,-120.53"/>
    </edge>
    <edge id=":J34_14" function="internal">
        <lane id=":J34_14_0" index="0" speed="8.12" length="12.65" shape="1553.64,-120.53 1553.28,-118.17 1551.64,-115.39 1548.94,-113.66 1545.18,-112.98"/>
    </edge>
    <edge id=":J34_9" function="internal">
        <lane id=":J34_9_0" index="0" speed="6.65" length="9.15" shape="1545.07,-116.18 1547.49,-116.62 1549.23,-117.74 1550.29,-119.55 1550.67,-122.05"/>
    </edge>
    <edge id=":J34_10" function="internal">
        <lane id=":J34_10_0" index="0" speed="13.89" length="28.20" shape="1545.07,-116.18 1573.28,-116.25"/>
    </edge>
    <edge id=":J34_11" function="internal">
        <lane id=":J34_11_0" index="0" speed="13.89" length="4.66" shape="1545.07,-116.18 1549.68,-115.48"/>
    </edge>