<?xml version="1.0" encoding="UTF-8"?>

<!-- generated on 2025-02-28 22:28:03 by Eclipse SUMO netedit Version 1.20.0
<configuration xmlns:xsi="http://www.w3.org/2001/XMLSchema-instance" xsi:noNamespaceSchemaLocation="http://sumo.dlr.de/xsd/neteditConfiguration.xsd">

    <input>
        <sumocfg-file value="/home/refo/Documents/Github/marl/scenarios/atlanta_1_5/simulation.sumocfg"/>
        <additional-files value=""/>
        <route-files value="/home/refo/Documents/Github/marl/scenarios/atlanta_1_5/routes.rou.xml"/>
        <sumo-net-file value="/home/refo/Documents/Github/marl/scenarios/atlanta_1_5/network.net.xml"/>
    </input>

    <output>
        <output-file value="/home/refo/Documents/Github/marl/scenarios/atlanta_1_5/network.net.xml"/>
    </output>

    <processing>
        <geometry.min-radius.fix.railways value="false"/>
        <geometry.max-grade.fix value="false"/>
        <offset.disable-normalization value="true"/>
        <lefthand value="0"/>
    </processing>

    <junctions>
        <no-turnarounds value="true"/>
        <junctions.corner-detail value="5"/>
        <junctions.limit-turn-speed value="5.50"/>
        <rectangular-lane-cut value="0"/>
    </junctions>

    <pedestrian>
        <walkingareas value="0"/>
    </pedestrian>

</configuration>
-->

<net version="1.20" junctionCornerDetail="5" limitTurnSpeed="5.50" xmlns:xsi="http://www.w3.org/2001/XMLSchema-instance" xsi:noNamespaceSchemaLocation="http://sumo.dlr.de/xsd/net_file.xsd">

    <location netOffset="0.00,0.00" convBoundary="178.79,809.74,518.14,1710.62" origBoundary="179.37,809.91,518.10,1709.67" projParameter="!"/>

    <edge id=":69227168_0" function="internal">
        <lane id=":69227168_0_0" index="0" speed="10.02" length="14.86" shape="369.95,1230.92 367.41,1226.88 364.74,1224.03 361.96,1222.36 359.05,1221.87"/>
    </edge>
    <edge id=":69227168_1" function="internal">
        <lane id=":69227168_1_0" index="0" speed="11.11" length="18.89" shape="369.95,1230.92 367.23,1225.85 365.61,1222.20 364.73,1218.35 364.21,1212.65"/>
        <lane id=":69227168_1_1" index="1" speed="11.11" length="18.89" shape="369.95,1230.92 367.78,1225.87 367.25,1222.09 367.44,1218.10 367.40,1212.45"/>
        <lane id=":69227168_1_2" index="2" speed="11.11" length="18.89" shape="372.77,1229.40 369.64,1224.61 367.05,1221.44 365.18,1218.06 364.21,1212.65"/>
        <lane id=":69227168_1_3" index="3" speed="11.11" length="18.89" shape="372.77,1229.40 370.24,1224.70 368.72,1221.31 367.89,1217.74 367.40,1212.45"/>
    </edge>
    <edge id=":69227168_5" function="internal">
        <lane id=":69227168_5_0" index="0" speed="8.22" length="4.27" shape="372.77,1229.40 371.40,1225.36"/>
    </edge>
    <edge id=":69227168_6" function="internal">
        <lane id=":69227168_6_0" index="0" speed="4.72" length="1.49" shape="372.77,1229.40 372.91,1227.88"/>
        <lane id=":69227168_6_1" index="1" speed="3.65" length="1.49" shape="372.77,1229.40 372.91,1227.97"/>
    </edge>
    <edge id=":69227168_28" function="internal">
        <lane id=":69227168_28_0" index="0" speed="8.22" length="14.99" shape="371.40,1225.36 371.13,1224.57 372.01,1220.86 375.40,1218.28 381.31,1216.84"/>
    </edge>
    <edge id=":69227168_29" function="internal">
        <lane id=":69227168_29_0" index="0" speed="4.72" length="7.82" shape="372.91,1227.88 373.04,1226.53 374.08,1225.07 375.86,1225.02 378.41,1226.38"/>
    </edge>
    <edge id=":69227168_30" function="internal">
        <lane id=":69227168_30_0" index="0" speed="3.65" length="3.23" shape="372.91,1227.97 373.42,1227.24 374.32,1227.21 375.59,1227.89"/>
    </edge>
    <edge id=":69227168_8" function="internal">
        <lane id=":69227168_8_0" index="0" speed="5.86" length="9.12" shape="381.70,1220.02 379.14,1220.70 377.73,1221.99 377.49,1223.88 378.41,1226.38"/>
        <lane id=":69227168_8_1" index="1" speed="6.75" length="12.55" shape="381.70,1220.02 377.68,1220.96 375.32,1222.58 374.63,1224.89 375.59,1227.89"/>
    </edge>
    <edge id=":69227168_10" function="internal">
        <lane id=":69227168_10_0" index="0" speed="11.11" length="22.73" shape="381.70,1220.02 376.77,1220.54 370.39,1221.11 364.00,1221.60 359.05,1221.87"/>
    </edge>
    <edge id=":69227168_11" function="internal">
        <lane id=":69227168_11_0" index="0" speed="9.24" length="7.98" shape="381.70,1220.02 376.36,1219.86 373.81,1219.20"/>
        <lane id=":69227168_11_1" index="1" speed="8.61" length="6.62" shape="381.70,1220.02 377.25,1219.76 375.20,1219.07"/>
    </edge>
    <edge id=":69227168_13" function="internal">
        <lane id=":69227168_13_0" index="0" speed="3.65" length="1.44" shape="381.70,1220.02 380.41,1219.37"/>
    </edge>
    <edge id=":69227168_31" function="internal">
        <lane id=":69227168_31_0" index="0" speed="9.24" length="12.17" shape="373.81,1219.20 370.72,1218.40 366.19,1215.90 364.21,1212.65"/>
    </edge>
    <edge id=":69227168_32" function="internal">
        <lane id=":69227168_32_0" index="0" speed="8.61" length="10.73" shape="375.20,1219.07 372.66,1218.22 369.01,1215.68 367.40,1212.45"/>
    </edge>
    <edge id=":69227168_33" function="internal">
        <lane id=":69227168_33_0" index="0" speed="3.65" length="3.24" shape="380.41,1219.37 379.91,1218.62 380.21,1217.78 381.31,1216.84"/>
    </edge>
    <edge id=":69227168_14" function="internal">
        <lane id=":69227168_14_0" index="0" speed="6.76" length="10.26" shape="373.79,1212.03 374.40,1214.47 375.85,1216.08 378.16,1216.87 381.31,1216.84"/>
    </edge>
    <edge id=":69227168_15" function="internal">
        <lane id=":69227168_15_0" index="0" speed="11.11" length="16.17" shape="373.79,1212.03 374.22,1216.51 374.95,1219.53 376.25,1222.39 378.41,1226.38"/>
        <lane id=":69227168_15_1" index="1" speed="11.11" length="16.17" shape="373.79,1212.03 373.76,1216.88 373.47,1220.31 373.79,1223.57 375.59,1227.89"/>
        <lane id=":69227168_15_2" index="2" speed="11.11" length="16.17" shape="370.60,1212.24 371.50,1216.85 373.27,1219.66 375.65,1222.30 378.41,1226.38"/>
        <lane id=":69227168_15_3" index="3" speed="11.11" length="16.17" shape="370.60,1212.24 371.06,1217.12 371.84,1220.42 373.24,1223.54 375.59,1227.89"/>
    </edge>
    <edge id=":69227168_19" function="internal">
        <lane id=":69227168_19_0" index="0" speed="8.65" length="3.38" shape="370.60,1212.24 370.19,1215.60"/>
    </edge>
    <edge id=":69227168_20" function="internal">
        <lane id=":69227168_20_0" index="0" speed="4.72" length="1.47" shape="370.60,1212.24 369.85,1213.54"/>
        <lane id=":69227168_20_1" index="1" speed="3.65" length="1.47" shape="370.60,1212.24 369.88,1213.49"/>
    </edge>
    <edge id=":69227168_34" function="internal">
        <lane id=":69227168_34_0" index="0" speed="8.65" length="13.78" shape="370.19,1215.60 370.10,1216.30 368.01,1219.26 364.33,1221.11 359.05,1221.87"/>
    </edge>
    <edge id=":69227168_35" function="internal">
        <lane id=":69227168_35_0" index="0" speed="4.72" length="7.85" shape="369.85,1213.54 369.16,1214.74 367.61,1215.64 365.96,1214.94 364.21,1212.65"/>
    </edge>
    <edge id=":69227168_36" function="internal">
        <lane id=":69227168_36_0" index="0" speed="3.65" length="3.23" shape="369.88,1213.49 369.10,1213.94 368.28,1213.59 367.40,1212.45"/>
    </edge>
    <edge id=":69227168_22" function="internal">
        <lane id=":69227168_22_0" index="0" speed="6.49" length="9.19" shape="358.94,1218.67 361.39,1218.22 363.08,1217.07 364.02,1215.21 364.21,1212.65"/>
        <lane id=":69227168_22_1" index="1" speed="7.30" length="11.92" shape="358.94,1218.67 362.79,1218.17 365.48,1216.96 367.02,1215.06 367.40,1212.45"/>
    </edge>
    <edge id=":69227168_24" function="internal">
        <lane id=":69227168_24_0" index="0" speed="11.11" length="22.44" shape="358.94,1218.67 363.85,1218.40 370.14,1217.92 376.42,1217.36 381.31,1216.84"/>
    </edge>
    <edge id=":69227168_25" function="internal">
        <lane id=":69227168_25_0" index="0" speed="11.11" length="6.80" shape="358.94,1218.67 364.62,1219.20 365.68,1219.51"/>
        <lane id=":69227168_25_1" index="1" speed="11.11" length="5.22" shape="358.94,1218.67 363.60,1219.35 364.07,1219.55"/>
    </edge>
    <edge id=":69227168_27" function="internal">
        <lane id=":69227168_27_0" index="0" speed="3.65" length="1.44" shape="358.94,1218.67 360.17,1219.43"/>
    </edge>
    <edge id=":69227168_37" function="internal">
        <lane id=":69227168_37_0" index="0" speed="11.11" length="14.75" shape="365.68,1219.51 370.46,1220.89 375.42,1223.40 378.41,1226.38"/>
    </edge>
    <edge id=":69227168_38" function="internal">
        <lane id=":69227168_38_0" index="0" speed="11.11" length="14.48" shape="364.07,1219.55 368.45,1221.40 372.71,1224.39 375.59,1227.89"/>
    </edge>
    <edge id=":69227168_39" function="internal">
        <lane id=":69227168_39_0" index="0" speed="3.65" length="3.23" shape="360.17,1219.43 360.60,1220.22 360.23,1221.03 359.05,1221.87"/>
    </edge>
    <edge id=":69249210_0" function="internal">
        <lane id=":69249210_0_0" index="0" speed="6.87" length="9.13" shape="450.62,1471.78 448.11,1472.12 446.23,1473.12 444.96,1474.77 444.32,1477.08"/>
        <lane id=":69249210_0_1" index="1" speed="7.67" length="11.63" shape="450.62,1471.78 446.71,1472.11 443.82,1473.03 441.97,1474.55 441.14,1476.67"/>
    </edge>
    <edge id=":69249210_2" function="internal">
        <lane id=":69249210_2_0" index="0" speed="9.33" length="4.08" shape="450.62,1471.78 446.55,1471.48"/>
        <lane id=":69249210_2_1" index="1" speed="8.68" length="3.64" shape="450.62,1471.78 446.99,1471.43"/>
    </edge>
    <edge id=":69249210_4" function="internal">
        <lane id=":69249210_4_0" index="0" speed="3.65" length="1.44" shape="450.62,1471.78 449.41,1470.99"/>
    </edge>
    <edge id=":69249210_19" function="internal">
        <lane id=":69249210_19_0" index="0" speed="9.33" length="15.26" shape="446.55,1471.48 444.03,1471.29 439.30,1469.73 436.41,1467.10 435.37,1463.40"/>
    </edge>
    <edge id=":69249210_20" function="internal">
        <lane id=":69249210_20_0" index="0" speed="8.68" length="12.95" shape="446.99,1471.43 445.43,1471.28 441.70,1469.70 439.41,1467.04 438.57,1463.31"/>
    </edge>
    <edge id=":69249210_21" function="internal">
        <lane id=":69249210_21_0" index="0" speed="3.65" length="3.23" shape="449.41,1470.99 449.01,1470.19 449.40,1469.39 450.60,1468.58"/>
    </edge>
    <edge id=":69249210_5" function="internal">
        <lane id=":69249210_5_0" index="0" speed="6.51" length="8.89" shape="444.97,1463.14 445.38,1465.53 446.45,1467.24 448.19,1468.25 450.60,1468.58"/>
    </edge>
    <edge id=":69249210_6" function="internal">
        <lane id=":69249210_6_0" index="0" speed="11.11" length="13.98" shape="444.97,1463.14 445.07,1467.28 445.05,1470.13 444.82,1472.96 444.32,1477.08"/>
        <lane id=":69249210_6_1" index="1" speed="11.11" length="13.98" shape="444.97,1463.14 444.58,1467.24 443.47,1469.92 442.15,1472.60 441.14,1476.67"/>
        <lane id=":69249210_6_2" index="2" speed="11.11" length="13.98" shape="441.77,1463.22 442.38,1467.38 443.45,1470.17 444.33,1472.96 444.32,1477.08"/>
        <lane id=":69249210_6_3" index="3" speed="11.11" length="13.98" shape="441.77,1463.22 441.87,1467.22 441.85,1469.97 441.63,1472.70 441.14,1476.67"/>
    </edge>
    <edge id=":69249210_10" function="internal">
        <lane id=":69249210_10_0" index="0" speed="4.72" length="1.27" shape="441.77,1463.22 441.09,1464.31"/>
        <lane id=":69249210_10_1" index="1" speed="3.65" length="1.27" shape="441.77,1463.22 441.10,1464.29"/>
    </edge>
    <edge id=":69249210_22" function="internal">
        <lane id=":69249210_22_0" index="0" speed="4.72" length="8.07" shape="441.09,1464.31 440.23,1465.67 438.66,1466.51 437.03,1465.76 435.37,1463.40"/>
    </edge>
    <edge id=":69249210_23" function="internal">
        <lane id=":69249210_23_0" index="0" speed="3.65" length="3.42" shape="441.10,1464.29 441.00,1464.45 440.21,1464.87 439.40,1464.49 438.57,1463.31"/>
    </edge>
    <edge id=":69249210_12" function="internal">
        <lane id=":69249210_12_0" index="0" speed="11.11" length="13.00" shape="434.80,1475.85 435.25,1472.17 435.45,1469.64 435.46,1467.10 435.37,1463.40"/>
        <lane id=":69249210_12_1" index="1" speed="11.11" length="13.00" shape="434.80,1475.85 435.76,1472.07 437.06,1469.60 438.17,1467.12 438.57,1463.31"/>
        <lane id=":69249210_12_2" index="2" speed="11.11" length="13.00" shape="437.97,1476.26 437.94,1472.43 437.05,1469.85 435.97,1467.26 435.37,1463.40"/>
        <lane id=":69249210_12_3" index="3" speed="11.11" length="13.00" shape="437.97,1476.26 438.44,1472.44 438.65,1469.81 438.67,1467.16 438.57,1463.31"/>
    </edge>
    <edge id=":69249210_16" function="internal">
        <lane id=":69249210_16_0" index="0" speed="8.97" length="3.35" shape="437.97,1476.26 439.07,1473.10"/>
    </edge>
    <edge id=":69249210_17" function="internal">
        <lane id=":69249210_17_0" index="0" speed="4.72" length="1.48" shape="437.97,1476.26 438.97,1475.11"/>
        <lane id=":69249210_17_1" index="1" speed="3.65" length="1.48" shape="437.97,1476.26 438.92,1475.17"/>
    </edge>
    <edge id=":69249210_24" function="internal">
        <lane id=":69249210_24_0" index="0" speed="8.97" length="12.90" shape="439.07,1473.10 439.13,1472.93 441.62,1470.53 445.44,1469.09 450.60,1468.58"/>
    </edge>
    <edge id=":69249210_25" function="internal">
        <lane id=":69249210_25_0" index="0" speed="4.72" length="7.82" shape="438.97,1475.11 439.86,1474.09 441.55,1473.50 443.04,1474.50 444.32,1477.08"/>
    </edge>
    <edge id=":69249210_26" function="internal">
        <lane id=":69249210_26_0" index="0" speed="3.65" length="3.23" shape="438.92,1475.17 439.76,1474.88 440.50,1475.38 441.14,1476.67"/>
    </edge>
    <edge id=":69387071_0" function="internal">
        <lane id=":69387071_0_0" index="0" speed="6.75" length="10.35" shape="432.33,1353.34 431.81,1350.88 430.39,1349.23 428.08,1348.39 424.88,1348.35"/>
    </edge>
    <edge id=":69387071_1" function="internal">
        <lane id=":69387071_1_0" index="0" speed="11.11" length="16.30" shape="432.33,1353.34 432.06,1348.83 431.38,1345.78 430.08,1342.90 427.91,1338.89"/>
        <lane id=":69387071_1_1" index="1" speed="11.11" length="16.30" shape="432.33,1353.34 432.52,1348.46 432.87,1345.00 432.55,1341.73 430.73,1337.38"/>
        <lane id=":69387071_1_2" index="2" speed="11.11" length="16.30" shape="435.53,1353.25 434.79,1348.59 433.08,1345.71 430.69,1343.02 427.91,1338.89"/>
        <lane id=":69387071_1_3" index="3" speed="11.11" length="16.30" shape="435.53,1353.25 435.24,1348.30 434.51,1344.95 433.10,1341.78 430.73,1337.38"/>
    </edge>
    <edge id=":69387071_5" function="internal">
        <lane id=":69387071_5_0" index="0" speed="8.74" length="3.39" shape="435.53,1353.25 436.06,1349.90"/>
    </edge>
    <edge id=":69387071_6" function="internal">
        <lane id=":69387071_6_0" index="0" speed="4.72" length="1.47" shape="435.53,1353.25 436.33,1351.98"/>
        <lane id=":69387071_6_1" index="1" speed="3.65" length="1.47" shape="435.53,1353.25 436.30,1352.03"/>
    </edge>
    <edge id=":69387071_28" function="internal">
        <lane id=":69387071_28_0" index="0" speed="8.74" length="13.82" shape="436.06,1349.90 436.17,1349.18 438.35,1346.23 442.06,1344.41 447.31,1343.72"/>
    </edge>
    <edge id=":69387071_29" function="internal">
        <lane id=":69387071_29_0" index="0" speed="4.72" length="7.85" shape="436.33,1351.98 437.07,1350.81 438.64,1349.96 440.27,1350.72 441.93,1353.07"/>
    </edge>
    <edge id=":69387071_30" function="internal">
        <lane id=":69387071_30_0" index="0" speed="3.65" length="3.23" shape="436.30,1352.03 437.09,1351.60 437.90,1351.98 438.73,1353.16"/>
    </edge>
    <edge id=":69387071_8" function="internal">
        <lane id=":69387071_8_0" index="0" speed="6.61" length="9.38" shape="447.38,1346.92 444.93,1347.35 443.21,1348.52 442.21,1350.42 441.93,1353.07"/>
        <lane id=":69387071_8_1" index="1" speed="7.40" length="12.05" shape="447.38,1346.92 443.53,1347.38 440.81,1348.57 439.21,1350.50 438.73,1353.16"/>
    </edge>
    <edge id=":69387071_10" function="internal">
        <lane id=":69387071_10_0" index="0" speed="11.11" length="22.54" shape="447.38,1346.92 424.88,1348.35"/>
    </edge>
    <edge id=":69387071_11" function="internal">
        <lane id=":69387071_11_0" index="0" speed="11.11" length="5.92" shape="447.38,1346.92 441.69,1346.31 441.49,1346.25"/>
        <lane id=":69387071_11_1" index="1" speed="11.11" length="4.50" shape="447.38,1346.92 442.93,1346.20"/>
    </edge>
    <edge id=":69387071_13" function="internal">
        <lane id=":69387071_13_0" index="0" speed="3.65" length="1.44" shape="447.38,1346.92 446.16,1346.14"/>
    </edge>
    <edge id=":69387071_31" function="internal">
        <lane id=":69387071_31_0" index="0" speed="11.11" length="15.75" shape="441.49,1346.25 435.85,1344.53 430.91,1341.93 427.91,1338.89"/>
    </edge>
    <edge id=":69387071_32" function="internal">
        <lane id=":69387071_32_0" index="0" speed="11.11" length="15.35" shape="442.93,1346.20 442.74,1346.17 437.90,1344.03 433.63,1340.95 430.73,1337.38"/>
    </edge>
    <edge id=":69387071_33" function="internal">
        <lane id=":69387071_33_0" index="0" speed="3.65" length="3.23" shape="446.16,1346.14 445.74,1345.35 446.12,1344.54 447.31,1343.72"/>
    </edge>
    <edge id=":69387071_14" function="internal">
        <lane id=":69387071_14_0" index="0" speed="10.17" length="15.08" shape="436.36,1334.35 438.96,1338.50 441.65,1341.44 444.43,1343.18 447.31,1343.72"/>
    </edge>
    <edge id=":69387071_15" function="internal">
        <lane id=":69387071_15_0" index="0" speed="11.11" length="19.27" shape="436.36,1334.35 439.14,1339.54 440.78,1343.28 441.60,1347.24 441.93,1353.07"/>
        <lane id=":69387071_15_1" index="1" speed="11.11" length="19.27" shape="436.36,1334.35 438.59,1339.48 439.13,1343.34 438.88,1347.40 438.73,1353.16"/>
        <lane id=":69387071_15_2" index="2" speed="11.11" length="19.27" shape="433.54,1335.87 436.73,1340.77 439.34,1344.04 441.15,1347.53 441.93,1353.07"/>
        <lane id=":69387071_15_3" index="3" speed="11.11" length="19.27" shape="433.54,1335.87 436.12,1340.66 437.65,1344.11 438.42,1347.77 438.73,1353.16"/>
    </edge>
    <edge id=":69387071_19" function="internal">
        <lane id=":69387071_19_0" index="0" speed="8.20" length="4.30" shape="433.54,1335.87 434.93,1339.94"/>
    </edge>
    <edge id=":69387071_20" function="internal">
        <lane id=":69387071_20_0" index="0" speed="4.72" length="1.48" shape="433.54,1335.87 433.40,1337.39"/>
        <lane id=":69387071_20_1" index="1" speed="3.65" length="1.48" shape="433.54,1335.87 433.41,1337.30"/>
    </edge>
    <edge id=":69387071_34" function="internal">
        <lane id=":69387071_34_0" index="0" speed="8.20" length="15.14" shape="434.93,1339.94 435.22,1340.78 434.34,1344.50 430.89,1347.02 424.88,1348.35"/>
    </edge>
    <edge id=":69387071_35" function="internal">
        <lane id=":69387071_35_0" index="0" speed="4.72" length="7.82" shape="433.40,1337.39 433.27,1338.74 432.24,1340.20 430.45,1340.25 427.91,1338.89"/>
    </edge>
    <edge id=":69387071_36" function="internal">
        <lane id=":69387071_36_0" index="0" speed="3.65" length="3.23" shape="433.41,1337.30 432.89,1338.03 432.00,1338.06 430.73,1337.38"/>
    </edge>
    <edge id=":69387071_22" function="internal">
        <lane id=":69387071_22_0" index="0" speed="5.82" length="9.13" shape="424.57,1345.16 427.16,1344.53 428.58,1343.28 428.83,1341.40 427.91,1338.89"/>
        <lane id=":69387071_22_1" index="1" speed="6.72" length="12.62" shape="424.57,1345.16 428.63,1344.31 431.01,1342.73 431.71,1340.42 430.73,1337.38"/>
    </edge>
    <edge id=":69387071_24" function="internal">
        <lane id=":69387071_24_0" index="0" speed="11.11" length="22.79" shape="424.57,1345.16 447.31,1343.72"/>
    </edge>
    <edge id=":69387071_25" function="internal">
        <lane id=":69387071_25_0" index="0" speed="9.23" length="8.24" shape="424.57,1345.16 429.93,1345.46 432.68,1346.25"/>
        <lane id=":69387071_25_1" index="1" speed="8.60" length="6.94" shape="424.57,1345.16 429.04,1345.53 431.34,1346.37"/>
    </edge>
    <edge id=":69387071_27" function="internal">
        <lane id=":69387071_27_0" index="0" speed="3.65" length="1.44" shape="424.57,1345.16 425.84,1345.84"/>
    </edge>
    <edge id=":69387071_37" function="internal">
        <lane id=":69387071_37_0" index="0" speed="9.23" length="12.05" shape="432.68,1346.25 435.57,1347.08 440.05,1349.72 441.93,1353.07"/>
    </edge>
    <edge id=":69387071_38" function="internal">
        <lane id=":69387071_38_0" index="0" speed="8.60" length="10.54" shape="431.34,1346.37 433.63,1347.20 437.22,1349.86 438.73,1353.16"/>
    </edge>
    <edge id=":69387071_39" function="internal">
        <lane id=":69387071_39_0" index="0" speed="3.65" length="3.23" shape="425.84,1345.84 426.32,1346.60 426.00,1347.43 424.88,1348.35"/>
    </edge>
    <edge id=":69421277_0" function="internal">
        <lane id=":69421277_0_0" index="0" speed="10.14" length="16.80" shape="436.99,1598.80 432.81,1599.66 429.41,1601.62 426.78,1604.69 424.92,1608.86"/>
        <lane id=":69421277_0_1" index="1" speed="10.70" length="18.80" shape="436.99,1598.80 431.34,1599.69 426.93,1601.50 423.77,1604.24 421.86,1607.91"/>
    </edge>
    <edge id=":69421277_2" function="internal">
        <lane id=":69421277_2_0" index="0" speed="11.11" length="25.79" shape="436.99,1598.80 411.34,1600.31"/>
        <lane id=":69421277_2_1" index="1" speed="11.11" length="25.79" shape="436.99,1598.80 430.15,1598.75 424.09,1598.02 418.02,1597.26 411.18,1597.11"/>
    </edge>
    <edge id=":69421277_4" function="internal">
        <lane id=":69421277_4_0" index="0" speed="10.13" length="17.33" shape="436.77,1595.61 429.21,1595.03 424.13,1592.13 422.41,1588.63"/>
        <lane id=":69421277_4_1" index="1" speed="9.59" length="18.68" shape="436.77,1595.61 430.63,1594.98 426.56,1592.12 424.55,1587.03 424.56,1584.97"/>
    </edge>
    <edge id=":69421277_6" function="internal">
        <lane id=":69421277_6_0" index="0" speed="5.58" length="1.78" shape="436.77,1595.61 435.07,1594.63"/>
        <lane id=":69421277_6_1" index="1" speed="4.72" length="1.78" shape="436.77,1595.61 435.07,1594.63"/>
        <lane id=":69421277_6_2" index="2" speed="3.65" length="1.78" shape="436.77,1595.61 435.52,1594.89"/>
    </edge>
    <edge id=":69421277_36" function="internal">
        <lane id=":69421277_36_0" index="0" speed="10.13" length="9.53" shape="422.41,1588.63 421.54,1586.88 421.43,1579.30"/>
    </edge>
    <edge id=":69421277_37" function="internal">
        <lane id=":69421277_37_0" index="0" speed="9.59" length="5.26" shape="424.56,1584.97 424.60,1579.71"/>
    </edge>
    <edge id=":69421277_38" function="internal">
        <lane id=":69421277_38_0" index="0" speed="5.58" length="12.06" shape="435.07,1594.63 433.02,1593.46 431.66,1591.14 432.69,1588.67 436.12,1586.03"/>
    </edge>
    <edge id=":69421277_39" function="internal">
        <lane id=":69421277_39_0" index="0" speed="4.72" length="7.39" shape="435.07,1594.63 434.27,1594.17 433.36,1592.63 434.05,1590.98 436.34,1589.22"/>
    </edge>
    <edge id=":69421277_40" function="internal">
        <lane id=":69421277_40_0" index="0" speed="3.65" length="3.23" shape="435.52,1594.89 435.07,1594.12 435.41,1593.30 436.55,1592.42"/>
    </edge>
    <edge id=":69421277_9" function="internal">
        <lane id=":69421277_9_0" index="0" speed="6.12" length="9.06" shape="430.95,1580.53 430.99,1583.09 431.86,1584.86 433.57,1585.84 436.12,1586.03"/>
        <lane id=":69421277_9_1" index="1" speed="6.98" length="12.11" shape="430.95,1580.53 430.84,1584.50 431.71,1587.27 433.54,1588.85 436.34,1589.22"/>
        <lane id=":69421277_9_2" index="2" speed="7.76" length="15.28" shape="430.95,1580.53 430.70,1585.92 431.55,1589.69 433.50,1591.86 436.55,1592.42"/>
    </edge>
    <edge id=":69421277_12" function="internal">
        <lane id=":69421277_12_0" index="0" speed="11.11" length="28.95" shape="430.95,1580.53 429.88,1587.80 428.57,1594.84 426.93,1601.80 424.92,1608.86"/>
        <lane id=":69421277_12_1" index="1" speed="11.11" length="28.95" shape="430.95,1580.53 429.41,1587.65 427.04,1594.36 424.36,1601.00 421.86,1607.91"/>
    </edge>
    <edge id=":69421277_14" function="internal">
        <lane id=":69421277_14_0" index="0" speed="11.11" length="21.18" shape="427.78,1580.12 425.72,1586.86 421.75,1593.31 417.04,1597.88"/>
        <lane id=":69421277_14_1" index="1" speed="11.11" length="22.32" shape="427.78,1580.12 425.95,1587.28 422.58,1592.50 417.65,1595.78 414.91,1596.34"/>
    </edge>
    <edge id=":69421277_16" function="internal">
        <lane id=":69421277_16_0" index="0" speed="4.72" length="1.61" shape="427.78,1580.12 426.61,1581.47"/>
        <lane id=":69421277_16_1" index="1" speed="3.65" length="1.61" shape="427.78,1580.12 426.83,1581.21"/>
    </edge>
    <edge id=":69421277_41" function="internal">
        <lane id=":69421277_41_0" index="0" speed="11.11" length="6.23" shape="417.04,1597.88 416.69,1598.22 411.34,1600.31"/>
    </edge>
    <edge id=":69421277_42" function="internal">
        <lane id=":69421277_42_0" index="0" speed="11.11" length="3.81" shape="414.91,1596.34 411.18,1597.11"/>
    </edge>
    <edge id=":69421277_43" function="internal">
        <lane id=":69421277_43_0" index="0" speed="4.72" length="7.56" shape="426.61,1581.47 425.88,1582.30 424.19,1582.89 422.71,1581.89 421.43,1579.30"/>
    </edge>
    <edge id=":69421277_44" function="internal">
        <lane id=":69421277_44_0" index="0" speed="3.65" length="3.23" shape="426.83,1581.21 425.98,1581.50 425.24,1581.01 424.60,1579.71"/>
    </edge>
    <edge id=":69421277_18" function="internal">
        <lane id=":69421277_18_0" index="0" speed="9.36" length="17.10" shape="410.85,1590.72 414.95,1589.84 418.08,1587.64 420.24,1584.13 421.43,1579.30"/>
        <lane id=":69421277_18_1" index="1" speed="9.93" length="19.36" shape="410.85,1590.72 416.37,1589.80 420.50,1587.66 423.24,1584.29 424.60,1579.71"/>
    </edge>
    <edge id=":69421277_20" function="internal">
        <lane id=":69421277_20_0" index="0" speed="11.11" length="25.70" shape="410.85,1590.72 417.21,1589.90 422.43,1588.51 428.17,1587.06 436.12,1586.03"/>
        <lane id=":69421277_20_1" index="1" speed="11.11" length="25.70" shape="410.85,1590.72 436.34,1589.22"/>
        <lane id=":69421277_20_2" index="2" speed="11.11" length="25.70" shape="410.85,1590.72 417.28,1590.90 422.63,1591.71 428.52,1592.45 436.55,1592.42"/>
    </edge>
    <edge id=":69421277_23" function="internal">
        <lane id=":69421277_23_0" index="0" speed="9.47" length="16.71" shape="411.02,1593.92 418.96,1594.49 423.92,1597.18 425.11,1600.05"/>
        <lane id=":69421277_23_1" index="1" speed="8.86" length="17.96" shape="411.02,1593.92 417.49,1594.50 421.45,1597.02 422.91,1601.49 422.58,1603.53"/>
    </edge>
    <edge id=":69421277_25" function="internal">
        <lane id=":69421277_25_0" index="0" speed="4.72" length="1.63" shape="411.02,1593.92 412.59,1594.85"/>
        <lane id=":69421277_25_1" index="1" speed="3.65" length="1.63" shape="411.02,1593.92 412.26,1594.66"/>
    </edge>
    <edge id=":69421277_45" function="internal">
        <lane id=":69421277_45_0" index="0" speed="9.47" length="9.04" shape="425.11,1600.05 425.91,1601.97 424.92,1608.86"/>
    </edge>
    <edge id=":69421277_46" function="internal">
        <lane id=":69421277_46_0" index="0" speed="8.86" length="4.43" shape="422.58,1603.53 421.86,1607.91"/>
    </edge>
    <edge id=":69421277_47" function="internal">
        <lane id=":69421277_47_0" index="0" speed="4.72" length="7.52" shape="412.59,1594.85 413.49,1595.40 414.37,1596.95 413.66,1598.59 411.34,1600.31"/>
    </edge>
    <edge id=":69421277_48" function="internal">
        <lane id=":69421277_48_0" index="0" speed="3.65" length="3.23" shape="412.26,1594.66 412.70,1595.44 412.34,1596.26 411.18,1597.11"/>
    </edge>
    <edge id=":69421277_27" function="internal">
        <lane id=":69421277_27_0" index="0" speed="5.88" length="9.11" shape="415.75,1606.00 416.18,1603.39 415.59,1601.57 413.97,1600.55 411.34,1600.31"/>
        <lane id=":69421277_27_1" index="1" speed="6.77" length="12.50" shape="415.75,1606.00 416.55,1601.97 416.05,1599.15 414.26,1597.53 411.18,1597.11"/>
    </edge>
    <edge id=":69421277_29" function="internal">
        <lane id=":69421277_29_0" index="0" speed="11.11" length="27.57" shape="415.75,1606.00 417.72,1599.20 419.23,1592.79 420.42,1586.32 421.43,1579.30"/>
        <lane id=":69421277_29_1" index="1" speed="11.11" length="27.57" shape="415.75,1606.00 418.21,1599.26 420.81,1593.00 423.10,1586.66 424.60,1579.71"/>
    </edge>
    <edge id=":69421277_31" function="internal">
        <lane id=":69421277_31_0" index="0" speed="11.11" length="20.60" shape="418.81,1606.95 421.87,1600.16 426.43,1593.45 429.95,1589.85"/>
        <lane id=":69421277_31_1" index="1" speed="11.11" length="19.99" shape="418.81,1606.95 421.88,1599.51 425.83,1594.07 430.08,1591.05"/>
        <lane id=":69421277_31_2" index="2" speed="11.11" length="20.80" shape="418.81,1606.95 421.51,1600.94 425.37,1596.51 430.38,1593.67 432.90,1593.16"/>
    </edge>
    <edge id=":69421277_34" function="internal">
        <lane id=":69421277_34_0" index="0" speed="4.72" length="1.63" shape="418.81,1606.95 420.22,1605.81"/>
        <lane id=":69421277_34_1" index="1" speed="3.65" length="1.63" shape="418.81,1606.95 419.93,1606.05"/>
    </edge>
    <edge id=":69421277_49" function="internal">
        <lane id=":69421277_49_0" index="0" speed="11.11" length="7.35" shape="429.95,1589.85 431.51,1588.26 436.12,1586.03"/>
    </edge>
    <edge id=":69421277_50" function="internal">