<?xml version="1.0" encoding="UTF-8"?>

<!-- generated on 2025-02-28 22:28:03 by Eclipse SUMO netedit Version 1.20.0
-->

<routes xmlns:xsi="http://www.w3.org/2001/XMLSchema-instance" xsi:noNamespaceSchemaLocation="http://sumo.dlr.de/xsd/routes_file.xsd">
    <!-- Routes -->
    <route id="route_0" edges="-290405874#2 290405873#0"/>
    <route id="route_1" edges="-290405874#2 354587522#0 354587522#3 354587522#7 631653294#0 354587521#0"/>
    <route id="route_10" edges="-505912698#0 -631653294#2 -354587522#9 -354587522#6 -354587522#2 -629278174#1"/>
    <route id="route_11" edges="354587523 290405874#0"/>
    <route id="route_12" edges="9246225#4 198659569#0"/>
    <route id="route_13" edges="290405872#0 -629278174#1"/>
    <route id="route_14" edges="9258925#0 611582485#0"/>
    <route id="route_15" edges="-505912698#0 -631653294#2 198659569#0"/>
    <route id="route_16" edges="290405872#0 290405874#0"/>
    <route id="route_17" edges="-354587521#1 -631653294#2 -354587522#9 -354587522#6 -354587522#2 -629278174#1"/>
    <route id="route_18" edges="9246225#4 631653294#0 -631653295#2"/>
    <route id="route_19" edges="9258925#0 354587522#7 631653294#0 -631653295#2"/>
    <route id="route_2" edges="-9247806#2 -354587522#2 -629278174#1"/>
    <route id="route_20" edges="-354587521#1 -631653295#2"/>
    <route id="route_21" edges="9246225#4 631653294#0 234013266#0 533146591"/>
    <route id="route_22" edges="-354587521#1 -631653294#2 -354587522#9 -354587522#6 9247806#0"/>
    <route id="route_23" edges="-354587521#1 -631653294#2 -9246225#5"/>
    <route id="route_24" edges="354587523 354587522#0 354587522#3 354587522#7 631653294#0 354587521#0"/>
    <route id="route_25" edges="9246225#4 631653294#0 354587521#0"/>
    <route id="route_26" edges="-354587521#1 -631653294#2 -354587522#9 -354587522#6 -354587522#2 290405873#0"/>
    <route id="route_27" edges="-354587521#1 234013266#0 533146591"/>
    <route id="route_28" edges="354587523 290405873#0"/>
    <route id="route_29" edges="-354587521#1 -631653294#2 -354587522#9 611582485#0"/>
    <route id="route_3" edges="-505912698#0 234013266#0 533146591"/>
    <route id="route_30" edges="-354587521#1 -631653294#2 -354587522#9 -9258925#3"/>
    <route id="route_31" edges="-9247806#2 354587522#3 354587522#7 631653294#0 354587521#0"/>
    <route id="route_32" edges="354587523 354587522#0 354587522#3 354587522#7 631653294#0 -631653295#2"/>
    <route id="route_33" edges="354587523 354587522#0 354587522#3 354587522#7 631653294#0 234013266#0 533146591"/>
    <route id="route_34" edges="9258925#0 354587522#7 631653294#0 354587521#0"/>
    <route id="route_35" edges="-533146591 -234013266#1 -631653294#2 -9246225#5"/>
    <route id="route_36" edges="354587523 354587522#0 9247806#0"/>
    <route id="route_37" edges="-533146591 -234013266#1 -631653294#2 -354587522#9 -354587522#6 -354587522#2 -629278174#1"/>
    <route id="route_38" edges="354587523 -629278174#1"/>
    <route id="route_39" edges="290405872#0 354587522#0 9247806#0"/>
    <route id="route_4" edges="290405872#0 354587522#0 354587522#3 354587522#7 631653294#0 354587521#0"/>
    <route id="route_40" edges="-505912698#0 354587521#0"/>
    <route id="route_41" edges="290405872#0 354587522#0 354587522#3 354587522#7 631653294#0 234013266#0 533146591"/>
    <route id="route_42" edges="-290405874#2 354587522#0 354587522#3 -9258925#3"/>
    <route id="route_43" edges="9258925#0 -354587522#6 -354587522#2 290405873#0"/>
    <route id="route_44" edges="-533146591 -234013266#1 -631653294#2 -354587522#9 -354587522#6 -354587522#2 290405874#0"/>
    <route id="route_45" edges="-505912698#0 -631653294#2 -9246225#5"/>
    <route id="route_46" edges="-198659569#3 -9246225#5"/>
    <route id="route_47" edges="-505912698#0 -631653295#2"/>
    <route id="route_48" edges="-290405874#2 354587522#0 354587522#3 354587522#7 631653294#0 234013266#0 533146591"/>
    <route id="route_49" edges="9246225#4 -354587522#9 -354587522#6 -354587522#2 290405874#0"/>
    <route id="route_5" edges="-533146591 -234013266#1 -631653295#2"/>
    <route id="route_50" edges="-198659569#3 -354587522#9 -354587522#6 -354587522#2 -629278174#1"/>
    <route id="route_51" edges="9258925#0 354587522#7 631653294#0 234013266#0 533146591"/>
    <route id="route_52" edges="-533146591 533146591"/>
    <route id="route_53" edges="-354587521#1 -631653294#2 -354587522#9 -354587522#6 -354587522#2 290405874#0"/>
    <route id="route_54" edges="-533146591 -234013266#1 -631653294#2 198659569#0"/>
    <route id="route_55" edges="354587523 354587522#0 354587522#3 611582485#0"/>
    <route id="route_56" edges="290405872#0 354587522#0 354587522#3 354587522#7 631653294#0 -631653295#2"/>
    <route id="route_57" edges="354587523 354587522#0 354587522#3 354587522#7 -9246225#5"/>
    <route id="route_58" edges="-533146591 -234013266#1 -631653294#2 -354587522#9 -354587522#6 -354587522#2 290405873#0"/>
    <route id="route_59" edges="-354587521#1 354587521#0"/>
    <route id="route_6" edges="-533146591 -234013266#1 354587521#0"/>
    <route id="route_60" edges="-533146591 -234013266#1 -631653294#2 -354587522#9 611582485#0"/>
    <route id="route_61" edges="290405872#0 354587522#0 354587522#3 -9258925#3"/>
    <route id="route_62" edges="-505912698#0 -631653294#2 -354587522#9 -354587522#6 -354587522#2 290405873#0"/>
    <route id="route_63" edges="354587523 354587522#0 354587522#3 -9258925#3"/>
    <route id="route_64" edges="-505912698#0 -631653294#2 -354587522#9 -9258925#3"/>
    <route id="route_65" edges="-505912698#0 -631653294#2 -354587522#9 -354587522#6 -354587522#2 290405874#0"/>
    <route id="route_66" edges="9246225#4 -354587522#9 -354587522#6 -354587522#2 -629278174#1"/>
    <route id="route_67" edges="290405872#0 354587522#0 354587522#3 354587522#7 198659569#0"/>
    <route id="route_68" edges="354587523 354587522#0 354587522#3 354587522#7 198659569#0"/>
    <route id="route_69" edges="9258925#0 -9258925#3"/>
    <route id="route_7" edges="-290405874#2 -629278174#1"/>
    <route id="route_70" edges="290405872#0 354587522#0 354587522#3 611582485#0"/>
    <route id="route_71" edges="9258925#0 -354587522#6 -354587522#2 -629278174#1"/>
    <route id="route_72" edges="9258925#0 354587522#7 198659569#0"/>
    <route id="route_73" edges="9258925#0 354587522#7 -9246225#5"/>
    <route id="route_74" edges="-505912698#0 -631653294#2 -354587522#9 -354587522#6 9247806#0"/>
    <route id="route_75" edges="9246225#4 -354587522#9 -354587522#6 -354587522#2 290405873#0"/>
    <route id="route_76" edges="-9247806#2 354587522#3 -9258925#3"/>
    <route id="route_77" edges="9246225#4 -9246225#5"/>
    <route id="route_78" edges="-533146591 -234013266#1 -631653294#2 -354587522#9 -354587522#6 9247806#0"/>
    <route id="route_79" edges="-198659569#3 631653294#0 234013266#0 533146591"/>
    <route id="route_8" edges="-9247806#2 -354587522#2 290405873#0"/>
    <route id="route_9" edges="290405872#0 354587522#0 354587522#3 354587522#7 -9246225#5"/>
    <!-- Vehicles, persons and containers (sorted by depart) -->
    <vehicle id="vehicle_0" depart="1.00" route="route_0"/>
    <vehicle id="vehicle_1" depart="1.00" route="route_1"/>
    <vehicle id="vehicle_2" depart="3.00" route="route_0"/>
    <vehicle id="vehicle_3" depart="3.00" route="route_2"/>
    <vehicle id="vehicle_4" depart="5.00" route="route_3"/>
    <vehicle id="vehicle_5" depart="5.00" route="route_4"/>
    <vehicle id="vehicle_6" depart="6.00" route="route_0"/>
    <vehicle id="vehicle_7" depart="7.00" route="route_3"/>
    <vehicle id="vehicle_10" depart="8.00" route="route_5"/>
    <vehicle id="vehicle_11" depart="8.00" route="route_5"/>
    <vehicle id="vehicle_12" depart="8.00" route="route_6"/>
    <vehicle id="vehicle_8" depart="8.00" route="route_0"/>
    <vehicle id="vehicle_9" depart="8.00" route="route_3"/>
    <vehicle id="vehicle_13" depart="9.00" route="route_7"/>
    <vehicle id="vehicle_14" depart="9.00" route="route_8"/>
    <vehicle id="vehicle_15" depart="10.00" route="route_0"/>
    <vehicle id="vehicle_16" depart="10.00" route="route_3"/>
    <vehicle id="vehicle_17" depart="10.00" route="route_3"/>
    <vehicle id="vehicle_18" depart="10.00" route="route_5"/>
    <vehicle id="vehicle_19" depart="11.00" route="route_5"/>
    <vehicle id="vehicle_20" depart="11.00" route="route_9"/>
    <vehicle id="vehicle_21" depart="12.00" route="route_0"/>
    <vehicle id="vehicle_22" depart="12.00" route="route_10"/>
    <vehicle id="vehicle_23" depart="12.00" route="route_11"/>
    <vehicle id="vehicle_24" depart="12.00" route="route_12"/>
    <vehicle id="vehicle_25" depart="13.00" route="route_0"/>
    <vehicle id="vehicle_26" depart="13.00" route="route_3"/>
    <vehicle id="vehicle_27" depart="13.00" route="route_3"/>
    <vehicle id="vehicle_28" depart="13.00" route="route_6"/>
    <vehicle id="vehicle_29" depart="13.00" route="route_5"/>
    <vehicle id="vehicle_30" depart="13.00" route="route_5"/>
    <vehicle id="vehicle_31" depart="13.00" route="route_8"/>
    <vehicle id="vehicle_32" depart="13.00" route="route_13"/>
    <vehicle id="vehicle_33" depart="13.00" route="route_14"/>
    <vehicle id="vehicle_34" depart="13.00" route="route_14"/>
    <vehicle id="vehicle_35" depart="14.00" route="route_7"/>
    <vehicle id="vehicle_36" depart="14.00" route="route_15"/>
    <vehicle id="vehicle_37" depart="14.00" route="route_16"/>
    <vehicle id="vehicle_38" depart="15.00" route="route_0"/>
    <vehicle id="vehicle_39" depart="15.00" route="route_5"/>
    <vehicle id="vehicle_40" depart="15.00" route="route_5"/>
    <vehicle id="vehicle_41" depart="16.00" route="route_17"/>
    <vehicle id="vehicle_42" depart="16.00" route="route_16"/>
    <vehicle id="vehicle_43" depart="17.00" route="route_7"/>
    <vehicle id="vehicle_44" depart="17.00" route="route_5"/>
    <vehicle id="vehicle_45" depart="18.00" route="route_17"/>
    <vehicle id="vehicle_46" depart="18.00" route="route_3"/>
    <vehicle id="vehicle_47" depart="18.00" route="route_16"/>
    <vehicle id="vehicle_48" depart="19.00" route="route_5"/>
    <vehicle id="vehicle_49" depart="19.00" route="route_16"/>
    <vehicle id="vehicle_50" depart="19.00" route="route_18"/>
    <vehicle id="vehicle_51" depart="19.00" route="route_19"/>
    <vehicle id="vehicle_52" depart="20.00" route="route_13"/>
    <vehicle id="vehicle_53" depart="20.00" route="route_16"/>
    <vehicle id="vehicle_54" depart="20.00" route="route_16"/>
    <vehicle id="vehicle_55" depart="21.00" route="route_20"/>
    <vehicle id="vehicle_56" depart="21.00" route="route_5"/>
    <vehicle id="vehicle_57" depart="21.00" route="route_5"/>
    <vehicle id="vehicle_58" depart="21.00" route="route_21"/>
    <vehicle id="vehicle_59" depart="22.00" route="route_5"/>
    <vehicle id="vehicle_60" depart="23.00" route="route_17"/>
    <vehicle id="vehicle_61" depart="23.00" route="route_17"/>
    <vehicle id="vehicle_62" depart="23.00" route="route_22"/>
    <vehicle id="vehicle_63" depart="23.00" route="route_17"/>
    <vehicle id="vehicle_64" depart="23.00" route="route_23"/>
    <vehicle id="vehicle_65" depart="23.00" route="route_23"/>
    <vehicle id="vehicle_66" depart="24.00" route="route_13"/>
    <vehicle id="vehicle_67" depart="26.00" route="route_20"/>
    <vehicle id="vehicle_68" depart="26.00" route="route_5"/>
    <vehicle id="vehicle_69" depart="26.00" route="route_11"/>
    <vehicle id="vehicle_70" depart="26.00" route="route_18"/>
    <vehicle id="vehicle_71" depart="26.00" route="route_21"/>
    <vehicle id="vehicle_72" depart="27.00" route="route_16"/>
    <vehicle id="vehicle_73" depart="27.00" route="route_13"/>
    <vehicle id="vehicle_74" depart="27.00" route="route_24"/>
    <vehicle id="vehicle_75" depart="27.00" route="route_18"/>
    <vehicle id="vehicle_76" depart="28.00" route="route_13"/>
    <vehicle id="vehicle_77" depart="29.00" route="route_16"/>
    <vehicle id="vehicle_78" depart="29.00" route="route_25"/>
    <vehicle id="vehicle_79" depart="30.00" route="route_6"/>
    <vehicle id="vehicle_80" depart="30.00" route="route_11"/>
    <vehicle id="vehicle_81" depart="31.00" route="route_16"/>
    <vehicle id="vehicle_82" depart="32.00" route="route_26"/>
    <vehicle id="vehicle_83" depart="32.00" route="route_17"/>
    <vehicle id="vehicle_84" depart="32.00" route="route_6"/>
    <vehicle id="vehicle_85" depart="32.00" route="route_5"/>
    <vehicle id="vehicle_86" depart="32.00" route="route_11"/>
    <vehicle id="vehicle_87" depart="33.00" route="route_27"/>
    <vehicle id="vehicle_88" depart="33.00" route="route_3"/>
    <vehicle id="vehicle_89" depart="33.00" route="route_18"/>
    <vehicle id="vehicle_90" depart="34.00" route="route_28"/>
    <vehicle id="vehicle_91" depart="35.00" route="route_11"/>
    <vehicle id="vehicle_92" depart="36.00" route="route_7"/>
    <vehicle id="vehicle_93" depart="36.00" route="route_5"/>
    <vehicle id="vehicle_94" depart="38.00" route="route_11"/>
    <vehicle id="vehicle_95" depart="41.00" route="route_17"/>
    <vehicle id="vehicle_96" depart="42.00" route="route_0"/>
    <vehicle id="vehicle_97" depart="42.00" route="route_17"/>
    <vehicle id="vehicle_98" depart="42.00" route="route_16"/>
    <vehicle id="vehicle_99" depart="42.00" route="route_24"/>
    <vehicle id="vehicle_100" depart="44.00" route="route_0"/>
    <vehicle id="vehicle_101" depart="44.00" route="route_7"/>
    <vehicle id="vehicle_102" depart="45.00" route="route_0"/>
    <vehicle id="vehicle_103" depart="46.00" route="route_17"/>
    <vehicle id="vehicle_104" depart="46.00" route="route_11"/>
    <vehicle id="vehicle_105" depart="47.00" route="route_0"/>
    <vehicle id="vehicle_106" depart="47.00" route="route_29"/>
    <vehicle id="vehicle_107" depart="48.00" route="route_12"/>
    <vehicle id="vehicle_108" depart="49.00" route="route_0"/>
    <vehicle id="vehicle_109" depart="49.00" route="route_30"/>
    <vehicle id="vehicle_110" depart="49.00" route="route_27"/>
    <vehicle id="vehicle_111" depart="50.00" route="route_7"/>
    <vehicle id="vehicle_112" depart="50.00" route="route_16"/>
    <vehicle id="vehicle_113" depart="52.00" route="route_0"/>
    <vehicle id="vehicle_114" depart="52.00" route="route_22"/>
    <vehicle id="vehicle_115" depart="52.00" route="route_4"/>
    <vehicle id="vehicle_116" depart="53.00" route="route_28"/>
    <vehicle id="vehicle_117" depart="55.00" route="route_13"/>
    <vehicle id="vehicle_118" depart="56.00" route="route_17"/>
    <vehicle id="vehicle_119" depart="56.00" route="route_6"/>
    <vehicle id="vehicle_120" depart="56.00" route="route_31"/>
    <vehicle id="vehicle_121" depart="56.00" route="route_16"/>
    <vehicle id="vehicle_122" depart="56.00" route="route_4"/>
    <vehicle id="vehicle_123" depart="57.00" route="route_24"/>
    <vehicle id="vehicle_124" depart="58.00" route="route_2"/>
    <vehicle id="vehicle_125" depart="61.00" route="route_17"/>
    <vehicle id="vehicle_126" depart="61.00" route="route_11"/>
    <vehicle id="vehicle_127" depart="62.00" route="route_17"/>
    <vehicle id="vehicle_128" depart="62.00" route="route_24"/>
    <vehicle id="vehicle_129" depart="62.00" route="route_32"/>
    <vehicle id="vehicle_130" depart="62.00" route="route_28"/>
    <vehicle id="vehicle_131" depart="64.00" route="route_23"/>
    <vehicle id="vehicle_132" depart="65.00" route="route_11"/>
    <vehicle id="vehicle_133" depart="65.00" route="route_24"/>
    <vehicle id="vehicle_134" depart="66.00" route="route_24"/>
    <vehicle id="vehicle_135" depart="68.00" route="route_27"/>
    <vehicle id="vehicle_136" depart="68.00" route="route_33"/>
    <vehicle id="vehicle_137" depart="70.00" route="route_17"/>
    <vehicle id="vehicle_138" depart="70.00" route="route_20"/>
    <vehicle id="vehicle_139" depart="70.00" route="route_11"/>
    <vehicle id="vehicle_140" depart="70.00" route="route_11"/>
    <vehicle id="vehicle_141" depart="71.00" route="route_17"/>
    <vehicle id="vehicle_142" depart="71.00" route="route_2"/>
    <vehicle id="vehicle_143" depart="71.00" route="route_25"/>
    <vehicle id="vehicle_144" depart="71.00" route="route_34"/>
    <vehicle id="vehicle_145" depart="74.00" route="route_17"/>
    <vehicle id="vehicle_146" depart="74.00" route="route_35"/>
    <vehicle id="vehicle_147" depart="75.00" route="route_24"/>
    <vehicle id="vehicle_148" depart="75.00" route="route_36"/>
    <vehicle id="vehicle_149" depart="77.00" route="route_17"/>
    <vehicle id="vehicle_150" depart="77.00" route="route_6"/>
    <vehicle id="vehicle_151" depart="77.00" route="route_32"/>
    <vehicle id="vehicle_152" depart="78.00" route="route_16"/>
    <vehicle id="vehicle_153" depart="79.00" route="route_37"/>
    <vehicle id="vehicle_154" depart="80.00" route="route_17"/>
    <vehicle id="vehicle_155" depart="80.00" route="route_17"/>
    <vehicle id="vehicle_156" depart="81.00" route="route_16"/>
    <vehicle id="vehicle_157" depart="81.00" route="route_38"/>
    <vehicle id="vehicle_158" depart="82.00" route="route_24"/>
    <vehicle id="vehicle_159" depart="83.00" route="route_16"/>
    <vehicle id="vehicle_160" depart="84.00" route="route_17"/>
    <vehicle id="vehicle_161" depart="84.00" route="route_5"/>
    <vehicle id="vehicle_162" depart="85.00" route="route_5"/>
    <vehicle id="vehicle_163" depart="85.00" route="route_13"/>
    <vehicle id="vehicle_164" depart="86.00" route="route_26"/>
    <vehicle id="vehicle_165" depart="86.00" route="route_17"/>
    <vehicle id="vehicle_166" depart="86.00" route="route_16"/>
    <vehicle id="vehicle_167" depart="86.00" route="route_39"/>
    <vehicle id="vehicle_168" depart="87.00" route="route_5"/>
    <vehicle id="vehicle_169" depart="87.00" route="route_13"/>
    <vehicle id="vehicle_170" depart="87.00" route="route_28"/>
    <vehicle id="vehicle_171" depart="88.00" route="route_3"/>
    <vehicle id="vehicle_172" depart="88.00" route="route_16"/>
    <vehicle id="vehicle_173" depart="88.00" route="route_24"/>
    <vehicle id="vehicle_174" depart="89.00" route="route_0"/>
    <vehicle id="vehicle_175" depart="89.00" route="route_7"/>
    <vehicle id="vehicle_176" depart="89.00" route="route_13"/>
    <vehicle id="vehicle_177" depart="90.00" route="route_40"/>
    <vehicle id="vehicle_178" depart="90.00" route="route_10"/>
    <vehicle id="vehicle_179" depart="90.00" route="route_5"/>
    <vehicle id="vehicle_180" depart="90.00" route="route_41"/>
    <vehicle id="vehicle_181" depart="90.00" route="route_24"/>
    <vehicle id="vehicle_182" depart="91.00" route="route_17"/>
    <vehicle id="vehicle_183" depart="91.00" route="route_37"/>
    <vehicle id="vehicle_184" depart="91.00" route="route_16"/>
    <vehicle id="vehicle_185" depart="91.00" route="route_24"/>
    <vehicle id="vehicle_186" depart="92.00" route="route_0"/>
    <vehicle id="vehicle_187" depart="92.00" route="route_7"/>
    <vehicle id="vehicle_188" depart="92.00" route="route_3"/>
    <vehicle id="vehicle_189" depart="92.00" route="route_32"/>
    <vehicle id="vehicle_190" depart="93.00" route="route_42"/>
    <vehicle id="vehicle_191" depart="93.00" route="route_40"/>
    <vehicle id="vehicle_192" depart="93.00" route="route_4"/>
    <vehicle id="vehicle_193" depart="93.00" route="route_25"/>
    <vehicle id="vehicle_194" depart="94.00" route="route_0"/>
    <vehicle id="vehicle_195" depart="94.00" route="route_40"/>
    <vehicle id="vehicle_196" depart="94.00" route="route_3"/>
    <vehicle id="vehicle_197" depart="94.00" route="route_33"/>
    <vehicle id="vehicle_198" depart="94.00" route="route_43"/>
    <vehicle id="vehicle_199" depart="95.00" route="route_7"/>
    <vehicle id="vehicle_200" depart="95.00" route="route_17"/>
    <vehicle id="vehicle_201" depart="95.00" route="route_3"/>
    <vehicle id="vehicle_202" depart="95.00" route="route_44"/>
    <vehicle id="vehicle_203" depart="96.00" route="route_40"/>
    <vehicle id="vehicle_204" depart="96.00" route="route_45"/>
    <vehicle id="vehicle_205" depart="96.00" route="route_2"/>
    <vehicle id="vehicle_206" depart="96.00" route="route_16"/>
    <vehicle id="vehicle_207" depart="97.00" route="route_0"/>
    <vehicle id="vehicle_208" depart="98.00" route="route_16"/>
    <vehicle id="vehicle_209" depart="99.00" route="route_46"/>
    <vehicle id="vehicle_210" depart="99.00" route="route_10"/>
    <vehicle id="vehicle_211" depart="100.00" route="route_3"/>
    <vehicle id="vehicle_212" depart="100.00" route="route_5"/>
    <vehicle id="vehicle_213" depart="100.00" route="route_14"/>
    <vehicle id="vehicle_214" depart="101.00" route="route_3"/>
    <vehicle id="vehicle_215" depart="101.00" route="route_47"/>
    <vehicle id="vehicle_216" depart="101.00" route="route_5"/>
    <vehicle id="vehicle_217" depart="101.00" route="route_16"/>
    <vehicle id="vehicle_218" depart="101.00" route="route_24"/>
    <vehicle id="vehicle_219" depart="102.00" route="route_46"/>
    <vehicle id="vehicle_220" depart="102.00" route="route_3"/>
    <vehicle id="vehicle_221" depart="102.00" route="route_10"/>
    <vehicle id="vehicle_222" depart="102.00" route="route_5"/>
    <vehicle id="vehicle_223" depart="102.00" route="route_5"/>
    <vehicle id="vehicle_224" depart="102.00" route="route_14"/>
    <vehicle id="vehicle_225" depart="103.00" route="route_48"/>
    <vehicle id="vehicle_226" depart="103.00" route="route_3"/>
    <vehicle id="vehicle_227" depart="103.00" route="route_5"/>
    <vehicle id="vehicle_228" depart="103.00" route="route_6"/>
    <vehicle id="vehicle_229" depart="103.00" route="route_6"/>
    <vehicle id="vehicle_230" depart="103.00" route="route_13"/>
    <vehicle id="vehicle_231" depart="104.00" route="route_3"/>
    <vehicle id="vehicle_232" depart="104.00" route="route_16"/>
    <vehicle id="vehicle_233" depart="105.00" route="route_3"/>
    <vehicle id="vehicle_234" depart="105.00" route="route_3"/>
    <vehicle id="vehicle_235" depart="105.00" route="route_3"/>
    <vehicle id="vehicle_236" depart="105.00" route="route_5"/>
    <vehicle id="vehicle_237" depart="105.00" route="route_5"/>
    <vehicle id="vehicle_238" depart="105.00" route="route_5"/>
    <vehicle id="vehicle_239" depart="105.00" route="route_18"/>
    <vehicle id="vehicle_240" depart="106.00" route="route_24"/>
    <vehicle id="vehicle_241" depart="107.00" route="route_5"/>
    <vehicle id="vehicle_242" depart="108.00" route="route_0"/>
    <vehicle id="vehicle_243" depart="108.00" route="route_3"/>
    <vehicle id="vehicle_244" depart="108.00" route="route_10"/>
    <vehicle id="vehicle_245" depart="108.00" route="route_5"/>
    <vehicle id="vehicle_246" depart="108.00" route="route_4"/>
    <vehicle id="vehicle_247" depart="108.00" route="route_36"/>
    <vehicle id="vehicle_248" depart="109.00" route="route_3"/>
    <vehicle id="vehicle_249" depart="109.00" route="route_24"/>
    <vehicle id="vehicle_250" depart="110.00" route="route_47"/>
    <vehicle id="vehicle_251" depart="110.00" route="route_3"/>
    <vehicle id="vehicle_252" depart="110.00" route="route_5"/>
    <vehicle id="vehicle_253" depart="110.00" route="route_16"/>
    <vehicle id="vehicle_254" depart="110.00" route="route_11"/>
    <vehicle id="vehicle_255" depart="110.00" route="route_18"/>
    <vehicle id="vehicle_256" depart="111.00" route="route_40"/>
    <vehicle id="vehicle_257" depart="111.00" route="route_10"/>
    <vehicle id="vehicle_258" depart="111.00" route="route_3"/>
    <vehicle id="vehicle_259" depart="112.00" route="route_46"/>
    <vehicle id="vehicle_260" depart="112.00" route="route_3"/>
    <vehicle id="vehicle_261" depart="112.00" route="route_5"/>
    <vehicle id="vehicle_262" depart="112.00" route="route_13"/>
    <vehicle id="vehicle_263" depart="112.00" route="route_16"/>
    <vehicle id="vehicle_264" depart="112.00" route="route_11"/>
    <vehicle id="vehicle_265" depart="113.00" route="route_3"/>
    <vehicle id="vehicle_266" depart="113.00" route="route_5"/>
    <vehicle id="vehicle_267" depart="114.00" route="route_5"/>
    <vehicle id="vehicle_268" depart="115.00" route="route_3"/>
    <vehicle id="vehicle_269" depart="115.00" route="route_37"/>
    <vehicle id="vehicle_270" depart="115.00" route="route_16"/>
    <vehicle id="vehicle_271" depart="117.00" route="route_3"/>
    <vehicle id="vehicle_272" depart="117.00" route="route_16"/>
    <vehicle id="vehicle_273" depart="118.00" route="route_3"/>
    <vehicle id="vehicle_274" depart="118.00" route="route_13"/>
    <vehicle id="vehicle_275" depart="119.00" route="route_16"/>
    <vehicle id="vehicle_276" depart="120.00" route="route_13"/>
    <vehicle id="vehicle_277" depart="120.00" route="route_14"/>
    <vehicle id="vehicle_278" depart="121.00" route="route_11"/>
    <vehicle id="vehicle_279" depart="122.00" route="route_5"/>
    <vehicle id="vehicle_280" depart="123.00" route="route_16"/>
    <vehicle id="vehicle_281" depart="124.00" route="route_3"/>
    <vehicle id="vehicle_282" depart="124.00" route="route_5"/>
    <vehicle id="vehicle_283" depart="124.00" route="route_11"/>
    <vehicle id="vehicle_284" depart="125.00" route="route_16"/>
    <vehicle id="vehicle_285" depart="125.00" route="route_18"/>
    <vehicle id="vehicle_286" depart="126.00" route="route_40"/>
    <vehicle id="vehicle_287" depart="126.00" route="route_37"/>
    <vehicle id="vehicle_288" depart="127.00" route="route_16"/>
    <vehicle id="vehicle_289" depart="127.00" route="route_11"/>
    <vehicle id="vehicle_290" depart="130.00" route="route_40"/>
    <vehicle id="vehicle_291" depart="130.00" route="route_11"/>
    <vehicle id="vehicle_292" depart="130.00" route="route_49"/>
    <vehicle id="vehicle_293" depart="131.00" route="route_37"/>
    <vehicle id="vehicle_294" depart="131.00" route="route_16"/>
    <vehicle id="vehicle_295" depart="133.00" route="route_0"/>
    <vehicle id="vehicle_296" depart="133.00" route="route_23"/>
    <vehicle id="vehicle_297" depart="133.00" route="route_20"/>
    <vehicle id="vehicle_298" depart="133.00" route="route_37"/>
    <vehicle id="vehicle_299" depart="134.00" route="route_18"/>
    <vehicle id="vehicle_300" depart="135.00" route="route_0"/>
    <vehicle id="vehicle_301" depart="135.00" route="route_24"/>
    <vehicle id="vehicle_302" depart="136.00" route="route_50"/>
    <vehicle id="vehicle_303" depart="136.00" route="route_51"/>
    <vehicle id="vehicle_304" depart="139.00" route="route_0"/>
    <vehicle id="vehicle_305" depart="141.00" route="route_0"/>
    <vehicle id="vehicle_306" depart="141.00" route="route_6"/>
    <vehicle id="vehicle_307" depart="142.00" route="route_7"/>
    <vehicle id="vehicle_308" depart="142.00" route="route_27"/>
    <vehicle id="vehicle_309" depart="143.00" route="route_0"/>
    <vehicle id="vehicle_310" depart="144.00" route="route_17"/>
    <vehicle id="vehicle_311" depart="145.00" route="route_7"/>
    <vehicle id="vehicle_312" depart="145.00" route="route_27"/>
    <vehicle id="vehicle_313" depart="147.00" route="route_27"/>
    <vehicle id="vehicle_314" depart="147.00" route="route_28"/>
    <vehicle id="vehicle_315" depart="148.00" route="route_0"/>
    <vehicle id="vehicle_316" depart="149.00" route="route_10"/>
    <vehicle id="vehicle_317" depart="150.00" route="route_26"/>
    <vehicle id="vehicle_318" depart="150.00" route="route_16"/>
    <vehicle id="vehicle_319" depart="151.00" route="route_0"/>
    <vehicle id="vehicle_320" depart="151.00" route="route_6"/>
    <vehicle id="vehicle_321" depart="151.00" route="route_28"/>
    <vehicle id="vehicle_322" depart="153.00" route="route_17"/>
    <vehicle id="vehicle_323" depart="153.00" route="route_30"/>
    <vehicle id="vehicle_324" depart="153.00" route="route_16"/>
    <vehicle id="vehicle_325" depart="153.00" route="route_24"/>
    <vehicle id="vehicle_326" depart="154.00" route="route_13"/>
    <vehicle id="vehicle_327" depart="155.00" route="route_17"/>
    <vehicle id="vehicle_328" depart="155.00" route="route_4"/>
    <vehicle id="vehicle_329" depart="155.00" route="route_24"/>
    <vehicle id="vehicle_330" depart="156.00" route="route_21"/>
    <vehicle id="vehicle_331" depart="157.00" route="route_52"/>
    <vehicle id="vehicle_332" depart="158.00" route="route_23"/>
    <vehicle id="vehicle_333" depart="158.00" route="route_17"/>
    <vehicle id="vehicle_334" depart="158.00" route="route_24"/>
    <vehicle id="vehicle_335" depart="158.00" route="route_25"/>
    <vehicle id="vehicle_336" depart="159.00" route="route_53"/>
    <vehicle id="vehicle_337" depart="162.00" route="route_17"/>
    <vehicle id="vehicle_338" depart="162.00" route="route_17"/>
    <vehicle id="vehicle_339" depart="162.00" route="route_11"/>
    <vehicle id="vehicle_340" depart="162.00" route="route_28"/>
    <vehicle id="vehicle_341" depart="163.00" route="route_17"/>
    <vehicle id="vehicle_342" depart="165.00" route="route_17"/>
    <vehicle id="vehicle_343" depart="165.00" route="route_30"/>
    <vehicle id="vehicle_344" depart="165.00" route="route_28"/>
    <vehicle id="vehicle_345" depart="166.00" route="route_53"/>
    <vehicle id="vehicle_346" depart="167.00" route="route_17"/>
    <vehicle id="vehicle_347" depart="167.00" route="route_17"/>
    <vehicle id="vehicle_348" depart="170.00" route="route_17"/>
    <vehicle id="vehicle_349" depart="170.00" route="route_17"/>
    <vehicle id="vehicle_350" depart="172.00" route="route_23"/>
    <vehicle id="vehicle_351" depart="173.00" route="route_16"/>
    <vehicle id="vehicle_352" depart="173.00" route="route_13"/>
    <vehicle id="vehicle_353" depart="174.00" route="route_23"/>
    <vehicle id="vehicle_354" depart="174.00" route="route_11"/>
    <vehicle id="vehicle_355" depart="175.00" route="route_20"/>
    <vehicle id="vehicle_356" depart="175.00" route="route_16"/>
    <vehicle id="vehicle_357" depart="175.00" route="route_21"/>
    <vehicle id="vehicle_358" depart="177.00" route="route_17"/>
    <vehicle id="vehicle_359" depart="177.00" route="route_37"/>