<?xml version="1.0" encoding="UTF-8"?>

<!-- generated on 2021-05-26 20:28:47 by Eclipse SUMO netedit Version 1.9.1
<configuration xmlns:xsi="http://www.w3.org/2001/XMLSchema-instance" xsi:noNamespaceSchemaLocation="http://sumo.dlr.de/xsd/netconvertConfiguration.xsd">

    <input>
        <sumo-net-file value="C:\Users\James\Dropbox\MATraffic\environments\ingolstadt7\ingolstadt7.net.xml"/>
    </input>

    <output>
        <output-file value="C:\Users\James\Dropbox\MATraffic\environments\ingolstadt7\ingolstadt7.net.xml"/>
    </output>

    <processing>
        <geometry.min-radius.fix.railways value="false"/>
        <geometry.max-grade.fix value="false"/>
        <offset.disable-normalization value="true"/>
        <lefthand value="false"/>
    </processing>

    <junctions>
        <no-turnarounds value="true"/>
        <junctions.corner-detail value="5"/>
        <junctions.limit-turn-speed value="5.5"/>
        <rectangular-lane-cut value="false"/>
    </junctions>

    <pedestrian>
        <walkingareas value="false"/>
    </pedestrian>

    <report>
        <aggregate-warnings value="5"/>
    </report>

</configuration>
-->

<net version="1.9" junctionCornerDetail="5" limitTurnSpeed="5.50" xmlns:xsi="http://www.w3.org/2001/XMLSchema-instance" xsi:noNamespaceSchemaLocation="http://sumo.dlr.de/xsd/net_file.xsd">

    <location netOffset="-464198.88,-4952821.58" convBoundary="212886.36,451123.42,213809.54,452310.10" origBoundary="8.520516,43.618350,29.768112,49.031374" projParameter="+proj=utm +zone=32 +ellps=WGS84 +datum=WGS84 +units=m +no_defs"/>

    <type id="highway.bridleway" priority="1" numLanes="1" speed="2.78" allow="pedestrian" oneway="1" width="2.00"/>
    <type id="highway.bus_guideway" priority="1" numLanes="1" speed="27.78" allow="bus" oneway="1"/>
    <type id="highway.cycleway" priority="1" numLanes="1" speed="8.33" allow="bicycle" oneway="1" width="1.00"/>
    <type id="highway.footway" priority="1" numLanes="1" speed="2.78" allow="pedestrian" oneway="1" width="2.00"/>
    <type id="highway.ford" priority="1" numLanes="1" speed="2.78" allow="army" oneway="1"/>
    <type id="highway.living_street" priority="3" numLanes="1" speed="2.78" disallow="tram rail_urban rail rail_electric ship" oneway="1"/>
    <type id="highway.motorway" priority="13" numLanes="2" speed="44.44" allow="private emergency authority army vip passenger hov taxi bus coach delivery truck trailer motorcycle evehicle custom1 custom2" oneway="1"/>
    <type id="highway.motorway_link" priority="12" numLanes="1" speed="22.22" allow="private emergency authority army vip passenger hov taxi bus coach delivery truck trailer motorcycle evehicle custom1 custom2" oneway="1"/>
    <type id="highway.path" priority="1" numLanes="1" speed="2.78" allow="pedestrian bicycle" oneway="1" width="2.00"/>
    <type id="highway.pedestrian" priority="1" numLanes="1" speed="2.78" allow="pedestrian" oneway="1" width="2.00"/>
    <type id="highway.primary" priority="9" numLanes="2" speed="27.78" disallow="tram rail_urban rail rail_electric ship" oneway="1"/>
    <type id="highway.primary_link" priority="8" numLanes="1" speed="22.22" disallow="tram rail_urban rail rail_electric ship" oneway="1"/>
    <type id="highway.raceway" priority="14" numLanes="2" speed="83.33" allow="vip" oneway="1"/>
    <type id="highway.residential" priority="4" numLanes="1" speed="13.89" disallow="tram rail_urban rail rail_electric ship" oneway="1"/>
    <type id="highway.secondary" priority="7" numLanes="2" speed="27.78" disallow="tram rail_urban rail rail_electric ship" oneway="1"/>
    <type id="highway.secondary_link" priority="6" numLanes="1" speed="22.22" disallow="tram rail_urban rail rail_electric ship" oneway="1"/>
    <type id="highway.service" priority="2" numLanes="1" speed="5.56" allow="pedestrian delivery bicycle" oneway="1"/>
    <type id="highway.stairs" priority="1" numLanes="1" speed="1.39" allow="pedestrian" oneway="1" width="2.00"/>
    <type id="highway.step" priority="1" numLanes="1" speed="1.39" allow="pedestrian" oneway="1" width="2.00"/>
    <type id="highway.steps" priority="1" numLanes="1" speed="1.39" allow="pedestrian" oneway="1" width="2.00"/>
    <type id="highway.tertiary" priority="6" numLanes="1" speed="22.22" disallow="tram rail_urban rail rail_electric ship" oneway="1"/>
    <type id="highway.tertiary_link" priority="5" numLanes="1" speed="22.22" disallow="tram rail_urban rail rail_electric ship" oneway="1"/>
    <type id="highway.track" priority="1" numLanes="1" speed="5.56" disallow="tram rail_urban rail rail_electric ship" oneway="1"/>
    <type id="highway.trunk" priority="11" numLanes="2" speed="27.78" disallow="pedestrian bicycle tram rail_urban rail rail_electric ship" oneway="1"/>
    <type id="highway.trunk_link" priority="10" numLanes="1" speed="22.22" disallow="pedestrian bicycle tram rail_urban rail rail_electric ship" oneway="1"/>
    <type id="highway.unclassified" priority="5" numLanes="1" speed="13.89" disallow="tram rail_urban rail rail_electric ship" oneway="1"/>
    <type id="highway.unsurfaced" priority="1" numLanes="1" speed="8.33" disallow="tram rail_urban rail rail_electric ship" oneway="1"/>
    <type id="railway.light_rail" priority="18" numLanes="1" speed="27.78" allow="rail_urban" oneway="1"/>
    <type id="railway.preserved" priority="15" numLanes="1" speed="27.78" allow="rail" oneway="1"/>
    <type id="railway.rail" priority="19" numLanes="1" speed="83.33" allow="rail rail_electric" oneway="1"/>
    <type id="railway.subway" priority="17" numLanes="1" speed="27.78" allow="rail_urban" oneway="1"/>
    <type id="railway.tram" priority="16" numLanes="1" speed="13.89" allow="tram" oneway="1"/>

    <edge id=":1195228772_0" function="internal">
        <lane id=":1195228772_0_0" index="0" disallow="pedestrian tram rail_urban rail rail_electric rail_fast ship" speed="13.89" length="0.47" shape="213048.20,451306.94 213047.96,451306.93 213047.80,451306.91 213047.64,451306.89 213047.41,451306.86"/>
        <lane id=":1195228772_0_1" index="1" disallow="pedestrian tram rail_urban rail rail_electric rail_fast ship" speed="13.89" length="0.47" shape="213048.37,451303.74 213048.23,451303.74 213048.13,451303.73 213048.03,451303.72 213047.90,451303.70"/>
        <lane id=":1195228772_0_2" index="2" disallow="pedestrian tram rail_urban rail rail_electric rail_fast ship" speed="13.89" length="0.47" shape="213048.54,451300.55 213048.49,451300.55 213048.46,451300.54 213048.42,451300.54 213048.38,451300.53"/>
    </edge>
    <edge id=":1200363932_0" function="internal">
        <lane id=":1200363932_0_0" index="0" disallow="pedestrian tram rail_urban rail rail_electric rail_fast ship" speed="13.89" length="19.06" shape="213010.40,451607.35 213004.89,451607.91 213001.06,451608.37 212997.47,451609.52 212992.70,451612.15"/>
        <lane id=":1200363932_0_1" index="1" disallow="pedestrian tram rail_urban rail rail_electric rail_fast ship" speed="13.89" length="19.06" shape="213009.52,451604.24 213003.75,451604.85 212999.75,451605.39 212996.00,451606.65 212991.01,451609.43"/>
    </edge>
    <edge id=":1200363932_2" function="internal">
        <lane id=":1200363932_2_0" index="0" disallow="pedestrian tram rail_urban rail rail_electric rail_fast ship" speed="13.89" length="18.47" shape="213006.04,451599.30 213002.34,451603.42 212999.89,451606.38 212997.19,451609.01 212992.70,451612.15"/>
        <lane id=":1200363932_2_1" index="1" disallow="pedestrian tram rail_urban rail rail_electric rail_fast ship" speed="13.89" length="18.47" shape="213003.67,451597.01 213001.39,451601.78 212998.95,451604.56 212995.71,451606.68 212991.01,451609.43"/>
    </edge>
    <edge id=":1200363969_0" function="internal">
        <lane id=":1200363969_0_0" index="0" disallow="pedestrian tram rail_urban rail rail_electric rail_fast ship" speed="6.51" length="9.03" shape="212989.44,451529.73 212988.55,451527.42 212987.13,451525.95 212985.19,451525.32 212982.73,451525.52"/>
    </edge>
    <edge id=":1200363969_1" function="internal">
        <lane id=":1200363969_1_0" index="0" disallow="pedestrian tram rail_urban rail rail_electric rail_fast ship" speed="13.89" length="13.85" shape="212989.44,451529.73 212988.51,451525.67 212987.94,451522.87 212987.52,451520.06 212987.03,451515.92"/>
        <lane id=":1200363969_1_1" index="1" disallow="pedestrian tram rail_urban rail rail_electric rail_fast ship" speed="13.89" length="13.85" shape="212992.56,451529.01 212991.65,451525.05 212991.10,451522.33 212990.69,451519.58 212990.20,451515.55"/>
    </edge>
    <edge id=":1200363969_3" function="internal">
        <lane id=":1200363969_3_0" index="0" disallow="pedestrian tram rail_urban rail rail_electric rail_fast ship" speed="6.81" length="9.13" shape="212982.01,451522.41 212984.43,451521.52 212986.07,451520.14 212986.94,451518.27 212987.03,451515.92"/>
    </edge>
    <edge id=":1200363973_0" function="internal">
        <lane id=":1200363973_0_0" index="0" disallow="pedestrian tram rail_urban rail rail_electric rail_fast ship" speed="13.89" length="8.10" shape="213003.70,451489.81 213004.11,451491.98 213005.19,451493.29 213006.36,451494.60 213007.03,451496.77"/>
        <lane id=":1200363973_0_1" index="1" disallow="pedestrian tram rail_urban rail rail_electric rail_fast ship" speed="13.89" length="8.10" shape="213000.51,451489.68 213000.91,451491.96 213001.99,451493.35 213003.16,451494.74 213003.84,451497.02"/>
        <lane id=":1200363973_0_2" index="2" disallow="pedestrian tram rail_urban rail rail_electric rail_fast ship" speed="13.89" length="8.10" shape="213000.51,451489.68 213000.42,451491.93 213000.41,451493.48 213000.48,451495.02 213000.64,451497.27"/>
        <lane id=":1200363973_0_3" index="3" disallow="pedestrian tram rail_urban rail rail_electric rail_fast ship" speed="13.89" length="8.10" shape="213000.51,451489.68 212999.91,451492.09 212998.79,451493.60 212997.77,451495.11 212997.45,451497.52"/>
    </edge>
    <edge id=":1205464844_0" function="internal">
        <lane id=":1205464844_0_0" index="0" disallow="pedestrian tram rail_urban rail rail_electric rail_fast ship" speed="13.89" length="8.02" shape="213400.80,452101.64 213400.78,452109.66"/>
    </edge>
    <edge id=":1205464844_1" function="internal">
        <lane id=":1205464844_1_0" index="0" disallow="pedestrian tram rail_urban rail rail_electric rail_fast ship" speed="13.89" length="8.37" shape="213397.58,452109.63 213397.11,452107.18 213396.01,452105.65 213394.91,452104.12 213394.40,452101.67"/>
        <lane id=":1205464844_1_1" index="1" disallow="pedestrian tram rail_urban rail rail_electric rail_fast ship" speed="13.89" length="8.37" shape="213397.58,452109.63 213397.60,452101.65"/>
    </edge>
    <edge id=":1331204959_0" function="internal">
        <lane id=":1331204959_0_0" index="0" disallow="pedestrian tram rail_urban rail rail_electric rail_fast ship" speed="13.89" length="12.64" shape="212951.04,451610.12 212953.80,451607.82 212955.54,451606.08 212957.21,451604.25 212959.73,451601.67"/>
        <lane id=":1331204959_0_1" index="1" disallow="pedestrian tram rail_urban rail rail_electric rail_fast ship" speed="13.89" length="12.64" shape="212953.01,451612.64 212955.85,451610.28 212957.65,451608.49 212959.36,451606.61 212961.96,451603.97"/>
        <lane id=":1331204959_0_2" index="2" disallow="pedestrian tram rail_urban rail rail_electric rail_fast ship" speed="13.89" length="12.64" shape="212954.99,451615.16 212957.90,451612.73 212959.75,451610.91 212961.52,451608.98 212964.18,451606.27"/>
        <lane id=":1331204959_0_3" index="3" disallow="pedestrian tram rail_urban rail rail_electric rail_fast ship" speed="13.89" length="12.64" shape="212956.96,451617.68 212959.96,451615.19 212961.86,451613.32 212963.68,451611.35 212966.41,451608.56"/>
    </edge>
    <edge id=":1331204959_4" function="internal">
        <lane id=":1331204959_4_0" index="0" disallow="pedestrian tram rail_urban rail rail_electric rail_fast ship" speed="6.49" length="9.72" shape="212956.96,451617.68 212959.37,451616.27 212961.54,451615.99 212963.48,451616.85 212965.18,451618.83"/>
    </edge>
    <edge id=":1331204963_0" function="internal">
        <lane id=":1331204963_0_0" index="0" disallow="pedestrian tram rail_urban rail rail_electric rail_fast ship" speed="13.89" length="9.34" shape="212973.98,451623.42 212965.92,451628.12"/>
        <lane id=":1331204963_0_1" index="1" disallow="pedestrian tram rail_urban rail rail_electric rail_fast ship" speed="13.89" length="9.34" shape="212972.37,451620.66 212964.30,451625.36"/>
    </edge>
    <edge id=":1331204963_2" function="internal">
        <lane id=":1331204963_2_0" index="0" disallow="pedestrian tram rail_urban rail rail_electric rail_fast ship" speed="6.81" length="8.76" shape="212965.29,451619.00 212966.94,451622.18 212967.60,451624.76 212967.26,451626.74 212965.92,451628.12"/>
        <lane id=":1331204963_2_1" index="1" disallow="pedestrian tram rail_urban rail rail_electric rail_fast ship" speed="5.90" length="8.76" shape="212965.29,451619.00 212966.21,451620.99 212966.35,451622.71 212965.71,451624.17 212964.30,451625.36"/>
    </edge>
    <edge id=":1387938626_0" function="internal">
        <lane id=":1387938626_0_0" index="0" disallow="pedestrian tram rail_urban rail rail_electric rail_fast ship" speed="13.89" length="8.19" shape="213080.62,451165.48 213079.76,451167.73 213079.52,451169.42 213079.28,451171.09 213078.39,451173.34"/>
        <lane id=":1387938626_0_1" index="1" disallow="pedestrian tram rail_urban rail rail_electric rail_fast ship" speed="13.89" length="8.19" shape="213077.77,451164.03 213076.91,451166.28 213076.67,451167.95 213076.43,451169.63 213075.55,451171.86"/>
        <lane id=":1387938626_0_2" index="2" disallow="pedestrian tram rail_urban rail rail_electric rail_fast ship" speed="13.89" length="8.19" shape="213077.77,451164.03 213076.47,451166.05 213075.25,451167.22 213074.03,451168.39 213072.71,451170.39"/>
    </edge>
    <edge id=":1526094877_0" function="internal">
        <lane id=":1526094877_0_0" index="0" disallow="pedestrian tram rail_urban rail rail_electric rail_fast ship" speed="7.34" length="23.38" shape="212932.23,451647.92 212926.31,451648.78 212921.63,451645.57 212919.67,451640.22 212921.93,451634.63"/>
        <lane id=":1526094877_0_1" index="1" disallow="pedestrian tram rail_urban rail rail_electric rail_fast ship" speed="5.96" length="14.72" shape="212931.21,451644.81 212927.41,451645.41 212924.29,451643.53 212922.89,451640.30 212924.24,451636.85"/>
        <lane id=":1526094877_0_2" index="2" disallow="pedestrian tram rail_urban rail rail_electric rail_fast ship" speed="5.12" length="10.30" shape="212931.21,451644.81 212928.58,451645.21 212926.48,451643.83 212925.57,451641.51 212926.55,451639.06"/>
        <lane id=":1526094877_0_3" index="3" disallow="pedestrian tram rail_urban rail rail_electric rail_fast ship" speed="6.15" length="15.78" shape="212931.21,451644.81 212926.20,451647.42 212924.14,451647.70 212925.02,451645.65 212928.86,451641.28"/>
    </edge>
    <edge id=":1636343531_0" function="internal">
        <lane id=":1636343531_0_0" index="0" disallow="pedestrian tram rail_urban rail rail_electric rail_fast ship" speed="13.89" length="7.63" shape="213624.47,452138.36 213617.88,452134.14"/>
        <lane id=":1636343531_0_1" index="1" disallow="pedestrian tram rail_urban rail rail_electric rail_fast ship" speed="13.89" length="7.63" shape="213626.16,452135.65 213619.73,452131.53"/>
        <lane id=":1636343531_0_2" index="2" disallow="pedestrian tram rail_urban rail rail_electric rail_fast ship" speed="13.89" length="7.63" shape="213627.85,452132.93 213621.58,452128.91"/>
    </edge>
    <edge id=":1636343531_3" function="internal">
        <lane id=":1636343531_3_0" index="0" disallow="pedestrian tram rail_urban rail rail_electric rail_fast ship" speed="8.20" length="8.93" shape="213620.25,452142.36 213620.31,452139.54 213619.93,452137.23 213619.13,452135.43 213617.88,452134.14"/>
        <lane id=":1636343531_3_1" index="1" disallow="pedestrian tram rail_urban rail rail_electric rail_fast ship" speed="9.04" length="11.00" shape="213620.25,452142.36 213620.55,452137.99 213620.56,452134.73 213620.29,452132.57 213619.73,452131.53"/>
        <lane id=":1636343531_3_2" index="2" disallow="pedestrian tram rail_urban rail rail_electric rail_fast ship" speed="9.99" length="13.55" shape="213620.25,452142.36 213620.61,452139.92 213621.26,452135.48 213621.73,452131.12 213621.58,452128.91"/>
    </edge>
    <edge id=":1833941877_0" function="internal">
        <lane id=":1833941877_0_0" index="0" disallow="pedestrian tram rail_urban rail rail_electric rail_fast ship" speed="8.33" length="12.31" shape="213170.66,451690.10 213168.36,451692.94 213166.75,451694.86 213165.24,451696.86 213163.27,451699.93"/>
    </edge>
    <edge id=":1833941877_1" function="internal">
        <lane id=":1833941877_1_0" index="0" disallow="pedestrian tram rail_urban rail rail_electric rail_fast ship" speed="8.33" length="5.71" shape="213163.87,451691.88 213165.27,451690.91 213166.22,451690.23 213167.06,451689.43 213168.14,451688.14"/>
    </edge>
    <edge id=":1833941883_0" function="internal">
        <lane id=":1833941883_0_0" index="0" disallow="pedestrian tram rail_urban rail rail_electric rail_fast ship" speed="13.89" length="10.32" shape="213130.44,451711.74 213123.67,451703.96"/>
        <lane id=":1833941883_0_1" index="1" disallow="pedestrian tram rail_urban rail rail_electric rail_fast ship" speed="13.89" length="10.32" shape="213132.86,451709.64 213126.08,451701.86"/>
    </edge>
    <edge id=":1833941883_2" function="internal">
        <lane id=":1833941883_2_0" index="0" disallow="pedestrian tram rail_urban rail rail_electric rail_fast ship" speed="10.89" length="10.99" shape="213130.91,451697.66 213132.30,451698.69 213134.51,451699.50 213137.52,451700.09 213141.34,451700.47"/>
    </edge>
    <edge id=":1833941883_3" function="internal">
        <lane id=":1833941883_3_0" index="0" disallow="pedestrian tram rail_urban rail rail_electric rail_fast ship" speed="13.89" length="10.32" shape="213130.91,451697.66 213137.68,451705.44"/>
        <lane id=":1833941883_3_1" index="1" disallow="pedestrian tram rail_urban rail rail_electric rail_fast ship" speed="13.89" length="10.32" shape="213128.50,451699.76 213135.27,451707.54"/>
    </edge>
    <edge id=":1833965838_0" function="internal">
        <lane id=":1833965838_0_0" index="0" disallow="pedestrian tram rail_urban rail rail_electric rail_fast ship" speed="13.89" length="0.49" shape="213558.86,452084.16 213559.69,452084.35"/>
        <lane id=":1833965838_0_1" index="1" disallow="pedestrian tram rail_urban rail rail_electric rail_fast ship" speed="13.89" length="0.49" shape="213558.26,452087.31 213558.86,452087.44"/>
        <lane id=":1833965838_0_2" index="2" disallow="pedestrian tram rail_urban rail rail_electric rail_fast ship" speed="13.89" length="0.49" shape="213557.67,452090.45 213558.03,452090.53"/>
        <lane id=":1833965838_0_3" index="3" disallow="pedestrian tram rail_urban rail rail_electric rail_fast ship" speed="13.89" length="0.49" shape="213557.08,452093.60 213557.20,452093.63"/>
    </edge>
    <edge id=":2001713465_0" function="internal">
        <lane id=":2001713465_0_0" index="0" disallow="pedestrian tram rail_urban rail rail_electric rail_fast ship" speed="13.89" length="6.59" shape="213569.86,452107.48 213568.01,452107.09 213566.66,452107.22 213565.31,452107.38 213563.43,452107.07"/>
        <lane id=":2001713465_0_1" index="1" disallow="pedestrian tram rail_urban rail rail_electric rail_fast ship" speed="13.89" length="6.59" shape="213569.86,452107.48 213568.15,452106.61 213567.13,452105.69 213566.11,452104.80 213564.37,452104.01"/>
        <lane id=":2001713465_0_2" index="2" disallow="pedestrian tram rail_urban rail rail_electric rail_fast ship" speed="13.89" length="6.59" shape="213570.95,452104.47 213569.19,452103.58 213568.15,452102.65 213567.09,452101.75 213565.31,452100.95"/>
    </edge>
    <edge id=":247957651_0" function="internal">
        <lane id=":247957651_0_0" index="0" disallow="pedestrian tram rail_urban rail rail_electric rail_fast ship" speed="8.49" length="1.34" shape="213206.04,451896.69 213205.74,451896.95 213205.55,451897.15 213205.40,451897.38 213205.21,451897.73"/>
    </edge>
    <edge id=":247957651_1" function="internal">
        <lane id=":247957651_1_0" index="0" disallow="pedestrian tram rail_urban rail rail_electric rail_fast ship" speed="13.89" length="3.73" shape="213196.75,451893.18 213197.46,451891.91 213198.02,451891.07 213198.71,451890.35 213199.81,451889.39"/>
        <lane id=":247957651_1_1" index="1" disallow="pedestrian tram rail_urban rail rail_electric rail_fast ship" speed="13.86" length="3.73" shape="213199.57,451894.70 213200.10,451893.73 213200.53,451893.10 213201.06,451892.55 213201.89,451891.83"/>
        <lane id=":247957651_1_2" index="2" disallow="pedestrian tram rail_urban rail rail_electric rail_fast ship" speed="11.49" length="3.73" shape="213202.39,451896.21 213202.75,451895.56 213203.04,451895.13 213203.40,451894.75 213203.96,451894.26"/>
    </edge>
    <edge id=":249176474_0" function="internal">
        <lane id=":249176474_0_0" index="0" disallow="pedestrian tram rail_urban rail rail_electric rail_fast ship" speed="8.37" length="9.56" shape="213189.29,451817.48 213188.28,451816.05 213186.57,451814.91 213184.14,451814.06 213181.00,451813.51"/>
    </edge>
    <edge id=":249176474_1" function="internal">
        <lane id=":249176474_1_0" index="0" disallow="pedestrian tram rail_urban rail rail_electric rail_fast ship" speed="13.89" length="15.16" shape="213189.29,451817.48 213183.53,451803.44"/>
        <lane id=":249176474_1_1" index="1" disallow="pedestrian tram rail_urban rail rail_electric rail_fast ship" speed="13.89" length="15.16" shape="213192.25,451816.26 213186.49,451802.23"/>
    </edge>
    <edge id=":249176474_3" function="internal">
        <lane id=":249176474_3_0" index="0" disallow="pedestrian tram rail_urban rail rail_electric rail_fast ship" speed="13.89" length="15.15" shape="213192.42,451799.81 213198.16,451813.82"/>
        <lane id=":249176474_3_1" index="1" disallow="pedestrian tram rail_urban rail rail_electric rail_fast ship" speed="13.89" length="15.15" shape="213189.46,451801.02 213195.21,451815.04"/>
    </edge>
    <edge id=":249176474_5" function="internal">
        <lane id=":249176474_5_0" index="0" disallow="pedestrian tram rail_urban rail rail_electric rail_fast ship" speed="8.13" length="7.75" shape="213189.46,451801.02 213191.10,451807.11 213190.80,451808.52"/>
    </edge>
    <edge id=":249176474_10" function="internal">
        <lane id=":249176474_10_0" index="0" disallow="pedestrian tram rail_urban rail rail_electric rail_fast ship" speed="8.13" length="12.61" shape="213190.80,451808.52 213190.24,451811.22 213186.87,451813.35 213181.00,451813.51"/>
    </edge>
    <edge id=":249176474_6" function="internal">
        <lane id=":249176474_6_0" index="0" disallow="pedestrian tram rail_urban rail rail_electric rail_fast ship" speed="5.93" length="10.14" shape="213180.05,451810.18 213182.72,451810.04 213184.19,451808.88 213184.46,451806.68 213183.53,451803.44"/>
        <lane id=":249176474_6_1" index="1" disallow="pedestrian tram rail_urban rail rail_electric rail_fast ship" speed="6.81" length="13.82" shape="213180.05,451810.18 213184.27,451810.13 213186.75,451808.79 213187.49,451806.15 213186.49,451802.23"/>
    </edge>
    <edge id=":249176474_8" function="internal">
        <lane id=":249176474_8_0" index="0" disallow="pedestrian tram rail_urban rail rail_electric rail_fast ship" speed="11.11" length="18.60" shape="213180.05,451810.18 213187.73,451811.17 213193.31,451812.11 213196.79,451812.99 213198.16,451813.82"/>
        <lane id=":249176474_8_1" index="1" disallow="pedestrian tram rail_urban rail rail_electric rail_fast ship" speed="10.78" length="16.29" shape="213180.05,451810.18 213186.18,451811.09 213190.75,451812.20 213193.76,451813.52 213195.21,451815.04"/>
    </edge>
    <edge id=":267408897_0" function="internal">
        <lane id=":267408897_0_0" index="0" disallow="pedestrian tram rail_urban rail rail_electric rail_fast ship" speed="13.89" length="9.18" shape="213620.28,452032.79 213620.13,452035.69 213621.60,452037.80 213623.04,452039.89 213622.78,452042.74"/>
        <lane id=":267408897_0_1" index="1" disallow="pedestrian tram rail_urban rail rail_electric rail_fast ship" speed="13.89" length="9.18" shape="213620.28,452032.79 213619.77,452035.25 213620.15,452037.11 213620.49,452038.95 213619.89,452041.37"/>
        <lane id=":267408897_0_2" index="2" disallow="pedestrian tram rail_urban rail rail_electric rail_fast ship" speed="13.89" length="9.18" shape="213620.28,452032.79 213617.00,452039.99"/>
    </edge>
    <edge id=":267408897_3" function="internal">
        <lane id=":267408897_3_0" index="0" disallow="pedestrian tram rail_urban rail rail_electric rail_fast ship" speed="13.89" length="7.72" shape="213611.07,452037.18 213612.16,452035.18 213612.86,452033.80 213613.50,452032.38 213614.39,452030.29"/>
        <lane id=":267408897_3_1" index="1" disallow="pedestrian tram rail_urban rail rail_electric rail_fast ship" speed="13.89" length="7.72" shape="213613.97,452038.55 213615.07,452036.52 213615.78,452035.11 213616.43,452033.67 213617.33,452031.54"/>
    </edge>
    <edge id=":267408977_0" function="internal">
        <lane id=":267408977_0_0" index="0" disallow="pedestrian tram rail_urban rail rail_electric rail_fast ship" speed="13.89" length="7.50" shape="213144.61,451728.51 213143.46,451726.71 213142.55,451725.55 213141.56,451724.46 213140.12,451722.87"/>
        <lane id=":267408977_0_1" index="1" disallow="pedestrian tram rail_urban rail rail_electric rail_fast ship" speed="13.89" length="7.50" shape="213147.35,451726.85 213146.11,451724.91 213145.14,451723.66 213144.08,451722.49 213142.53,451720.77"/>
    </edge>
    <edge id=":267408977_2" function="internal">
        <lane id=":267408977_2_0" index="0" disallow="pedestrian tram rail_urban rail rail_electric rail_fast ship" speed="8.05" length="9.13" shape="213153.21,451714.89 213152.13,451717.16 213151.70,451719.36 213151.94,451721.49 213152.83,451723.54"/>
    </edge>
    <edge id=":267408977_3" function="internal">
        <lane id=":267408977_3_0" index="0" disallow="pedestrian tram rail_urban rail rail_electric rail_fast ship" speed="13.89" length="8.60" shape="213147.36,451716.57 213149.12,451718.53 213150.33,451719.89 213151.42,451721.32 213152.83,451723.54"/>
        <lane id=":267408977_3_1" index="1" disallow="pedestrian tram rail_urban rail rail_electric rail_fast ship" speed="13.89" length="8.60" shape="213144.95,451718.67 213146.60,451720.51 213147.74,451721.77 213148.76,451723.12 213150.09,451725.19"/>
    </edge>
    <edge id=":267517557_0" function="internal">
        <lane id=":267517557_0_0" index="0" disallow="pedestrian tram rail_urban rail rail_electric rail_fast ship" speed="5.05" length="4.66" width="2.00" shape="213628.52,452140.97 213627.55,452140.56 213626.55,452140.64 213625.54,452141.19 213624.51,452142.23"/>
    </edge>
    <edge id=":267517557_1" function="internal">
        <lane id=":267517557_1_0" index="0" disallow="pedestrian tram rail_urban rail rail_electric rail_fast ship" speed="13.89" length="4.72" shape="213628.52,452140.97 213624.64,452138.47"/>
        <lane id=":267517557_1_1" index="1" disallow="pedestrian tram rail_urban rail rail_electric rail_fast ship" speed="13.89" length="4.72" shape="213630.30,452138.31 213626.33,452135.75"/>
        <lane id=":267517557_1_2" index="2" disallow="pedestrian tram rail_urban rail rail_electric rail_fast ship" speed="13.89" length="4.72" shape="213632.08,452135.65 213628.02,452133.04"/>
    </edge>
    <edge id=":267517558_0" function="internal">
        <lane id=":267517558_0_0" index="0" disallow="pedestrian tram rail_urban rail rail_electric rail_fast ship" speed="5.55" length="2.87" shape="213624.39,452142.39 213621.82,452143.66"/>
    </edge>
    <edge id=":267517558_1" function="internal">
        <lane id=":267517558_1_0" index="0" disallow="pedestrian tram rail_urban rail rail_electric rail_fast ship" speed="8.33" length="1.82" shape="213618.64,452143.33 213620.24,452142.46"/>
    </edge>
    <edge id=":267517561_0" function="internal">
        <lane id=":267517561_0_0" index="0" disallow="pedestrian tram rail_urban rail rail_electric rail_fast ship" speed="6.33" length="9.67" shape="213502.24,452092.46 213499.53,452092.24 213497.55,452092.98 213496.31,452094.69 213495.81,452097.37"/>
    </edge>
    <edge id=":267517561_1" function="internal">
        <lane id=":267517561_1_0" index="0" disallow="pedestrian tram rail_urban rail rail_electric rail_fast ship" speed="13.89" length="14.44" shape="213502.24,452092.46 213488.12,452089.10"/>
        <lane id=":267517561_1_1" index="1" disallow="pedestrian tram rail_urban rail rail_electric rail_fast ship" speed="13.89" length="14.44" shape="213502.95,452089.34 213488.91,452086.00"/>
        <lane id=":267517561_1_2" index="2" disallow="pedestrian tram rail_urban rail rail_electric rail_fast ship" speed="13.89" length="14.44" shape="213503.66,452086.22 213489.69,452082.90"/>
    </edge>
    <edge id=":267517561_4" function="internal">
        <lane id=":267517561_4_0" index="0" disallow="pedestrian tram rail_urban rail rail_electric rail_fast ship" speed="7.40" length="10.13" shape="213492.61,452097.23 213492.44,452094.13 213491.64,452091.74 213490.20,452090.06 213488.12,452089.10"/>
    </edge>
    <edge id=":267782478_0" function="internal">
        <lane id=":267782478_0_0" index="0" disallow="pedestrian tram rail_urban rail rail_electric rail_fast ship" speed="8.33" length="14.51" shape="213267.24,452060.07 213264.87,452074.38"/>
    </edge>
    <edge id=":267782478_1" function="internal">