<configuration>
  <input>
    <net-file value="ingolstadt7.net.xml"/>
	<route-files value="ingolstadt7.rou.xml"/>
  </input>
  <time>
    <begin value="57600"/>
    <end value="61200"/>
  </time>
</configuration>
