<configuration>
    <input>
        <net-file value="single-intersection.net.xml"/>
        <route-files value="single-intersection.rou.xml"/>
    </input>
    <time>
        <begin value="0"/>
        <end value="100000"/>
    </time>
    <max-depart-delay value="3600"/>

</configuration>

<!-- 
 <output>
        <summary-output value="output_sumo.xml"/>
 </output>
 -->
