<configuration>
    <input>
        <net-file value="single-intersection.net.xml"/>
        <route-files value="temp.rou.xml"/>
    </input>
    <time>
        <begin value="0"/>
        <end value="100000"/>
    </time>
</configuration>




