<?xml version="1.0" encoding="UTF-8"?>

<!-- generated on 2025-03-02 21:06:18 by Eclipse SUMO netedit Version 1.20.0
<configuration xmlns:xsi="http://www.w3.org/2001/XMLSchema-instance" xsi:noNamespaceSchemaLocation="http://sumo.dlr.de/xsd/neteditConfiguration.xsd">

    <input>
        <sumocfg-file value="/home/refo/Documents/Github/bagon/scenarios/celoria/simulation.sumocfg"/>
        <route-files value="/home/refo/Documents/Github/bagon/scenarios/celoria/routes.rou.xml"/>
        <sumo-net-file value="/home/refo/Documents/Github/bagon/scenarios/celoria/network.net.xml"/>
    </input>

    <output>
        <output-file value="/home/refo/Documents/Github/bagon/scenarios/celoria/network.net.xml"/>
    </output>

    <processing>
        <offset.disable-normalization value="true"/>
    </processing>

    <junctions>
        <no-turnarounds value="true"/>
    </junctions>

    <netedit>
        <new-network value="false"/>
    </netedit>

</configuration>
-->

<net version="1.20" junctionCornerDetail="5" limitTurnSpeed="5.50" xmlns:xsi="http://www.w3.org/2001/XMLSchema-instance" xsi:noNamespaceSchemaLocation="http://sumo.dlr.de/xsd/net_file.xsd">

    <location netOffset="0.00,0.00" convBoundary="-0.41,-185.18,850.87,404.94" origBoundary="10000000000.00,10000000000.00,-10000000000.00,-10000000000.00" projParameter="!"/>

    <edge id=":J1_0" function="internal">
        <lane id=":J1_0_0" index="0" speed="6.52" length="9.03" shape="91.66,50.94 89.45,49.84 87.41,49.72 85.55,50.56 83.87,52.37"/>
    </edge>
    <edge id=":J1_1" function="internal">
        <lane id=":J1_1_0" index="0" speed="13.89" length="14.68" shape="91.66,50.94 79.74,42.38"/>
    </edge>
    <edge id=":J1_2" function="internal">
        <lane id=":J1_2_0" index="0" speed="8.13" length="4.20" shape="91.66,50.94 88.82,48.30 88.69,48.02"/>
    </edge>
    <edge id=":J1_12" function="internal">
        <lane id=":J1_12_0" index="0" speed="8.13" length="10.20" shape="88.69,48.02 87.48,45.34 87.65,42.06 89.34,38.45"/>
    </edge>
    <edge id=":J1_3" function="internal">
        <lane id=":J1_3_0" index="0" speed="6.66" length="9.34" shape="92.03,40.20 90.92,42.55 90.79,44.68 91.64,46.60 93.48,48.30"/>
    </edge>
    <edge id=":J1_4" function="internal">
        <lane id=":J1_4_0" index="0" speed="13.89" length="14.66" shape="92.03,40.20 83.87,52.37"/>
    </edge>
    <edge id=":J1_5" function="internal">
        <lane id=":J1_5_0" index="0" speed="7.88" length="4.24" shape="92.03,40.20 89.39,43.21 89.18,43.31"/>
    </edge>
    <edge id=":J1_13" function="internal">
        <lane id=":J1_13_0" index="0" speed="7.88" length="10.22" shape="89.18,43.31 86.47,44.58 83.25,44.30 79.74,42.38"/>
    </edge>
    <edge id=":J1_6" function="internal">
        <lane id=":J1_6_0" index="0" speed="6.36" length="9.04" shape="81.66,39.82 83.86,41.02 85.87,41.19 87.70,40.34 89.34,38.45"/>
    </edge>
    <edge id=":J1_7" function="internal">
        <lane id=":J1_7_0" index="0" speed="13.89" length="14.54" shape="81.66,39.82 93.48,48.30"/>
    </edge>
    <edge id=":J1_8" function="internal">
        <lane id=":J1_8_0" index="0" speed="8.17" length="3.98" shape="81.66,39.82 84.49,42.62"/>
    </edge>
    <edge id=":J1_14" function="internal">
        <lane id=":J1_14_0" index="0" speed="8.17" length="10.44" shape="84.49,42.62 85.80,45.65 85.59,48.90 83.87,52.37"/>
    </edge>
    <edge id=":J1_9" function="internal">
        <lane id=":J1_9_0" index="0" speed="6.71" length="9.39" shape="81.24,50.55 82.35,48.30 82.47,46.19 81.60,44.22 79.74,42.38"/>
    </edge>
    <edge id=":J1_10" function="internal">
        <lane id=":J1_10_0" index="0" speed="13.89" length="14.56" shape="81.24,50.55 89.34,38.45"/>
    </edge>
    <edge id=":J1_11" function="internal">
        <lane id=":J1_11_0" index="0" speed="8.01" length="3.88" shape="81.24,50.55 83.88,47.71"/>
    </edge>
    <edge id=":J1_15" function="internal">
        <lane id=":J1_15_0" index="0" speed="8.01" length="10.29" shape="83.88,47.71 86.80,46.38 90.00,46.58 93.48,48.30"/>
    </edge>
    <edge id=":J10_0" function="internal">
        <lane id=":J10_0_0" index="0" speed="10.98" length="14.11" shape="503.08,142.97 499.82,145.37 497.41,148.01 495.85,150.90 495.14,154.02"/>
    </edge>
    <edge id=":J10_1" function="internal">
        <lane id=":J10_1_0" index="0" speed="13.89" length="17.37" shape="503.08,142.97 499.41,144.87 495.12,146.47 490.68,147.53 486.60,147.80"/>
    </edge>
    <edge id=":J10_2" function="internal">
        <lane id=":J10_2_0" index="0" speed="7.41" length="5.70" shape="503.08,142.97 498.50,145.02 497.82,144.96"/>
    </edge>
    <edge id=":J10_12" function="internal">
        <lane id=":J10_12_0" index="0" speed="7.41" length="11.03" shape="497.82,144.96 495.16,144.74 493.06,142.13 492.19,137.19"/>
    </edge>
    <edge id=":J10_3" function="internal">
        <lane id=":J10_3_0" index="0" speed="5.68" length="9.23" shape="495.39,137.06 495.87,139.78 497.03,141.22 498.87,141.38 501.40,140.25"/>
    </edge>
    <edge id=":J10_4" function="internal">
        <lane id=":J10_4_0" index="0" speed="13.89" length="16.97" shape="495.39,137.06 495.50,141.12 495.50,145.54 495.39,149.97 495.14,154.02"/>
    </edge>
    <edge id=":J10_5" function="internal">
        <lane id=":J10_5_0" index="0" speed="7.98" length="5.26" shape="495.39,137.06 494.75,140.72 494.00,142.07"/>
    </edge>
    <edge id=":J10_13" function="internal">
        <lane id=":J10_13_0" index="0" speed="7.98" length="9.84" shape="494.00,142.07 492.80,144.25 489.95,146.88 486.60,147.80"/>
    </edge>
    <edge id=":J10_6" function="internal">
        <lane id=":J10_6_0" index="0" speed="6.79" length="10.64" shape="486.76,144.61 489.26,144.26 490.99,142.90 491.97,140.55 492.19,137.19"/>
    </edge>
    <edge id=":J10_7" function="internal">
        <lane id=":J10_7_0" index="0" speed="13.89" length="15.48" shape="486.76,144.61 490.56,144.40 494.36,143.51 498.02,142.07 501.40,140.25"/>
    </edge>
    <edge id=":J10_8" function="internal">
        <lane id=":J10_8_0" index="0" speed="7.98" length="2.76" shape="486.76,144.61 489.47,145.13"/>
    </edge>
    <edge id=":J10_14" function="internal">
        <lane id=":J10_14_0" index="0" speed="7.98" length="11.72" shape="489.47,145.13 490.72,145.37 493.43,147.20 494.91,150.08 495.14,154.02"/>
    </edge>
    <edge id=":J10_9" function="internal">
        <lane id=":J10_9_0" index="0" speed="6.48" length="9.19" shape="491.95,153.74 491.80,151.26 490.86,149.44 489.12,148.29 486.60,147.80"/>
    </edge>
    <edge id=":J10_10" function="internal">
        <lane id=":J10_10_0" index="0" speed="13.89" length="16.56" shape="491.95,153.74 492.20,149.76 492.31,145.47 492.30,141.18 492.19,137.19"/>
    </edge>
    <edge id=":J10_11" function="internal">
        <lane id=":J10_11_0" index="0" speed="11.96" length="4.13" shape="491.95,153.74 492.96,150.31 493.24,149.83"/>
    </edge>
    <edge id=":J10_15" function="internal">
        <lane id=":J10_15_0" index="0" speed="11.96" length="12.72" shape="493.24,149.83 495.17,146.49 498.13,142.93 501.40,140.25"/>
    </edge>
    <edge id=":J11_0" function="internal">
        <lane id=":J11_0_0" index="0" speed="6.77" length="9.32" shape="641.33,64.31 639.54,62.41 637.60,61.46 635.50,61.48 633.24,62.44"/>
    </edge>
    <edge id=":J11_1" function="internal">
        <lane id=":J11_1_0" index="0" speed="13.89" length="17.47" shape="641.33,64.31 639.36,60.70 637.86,56.36 636.89,51.84 636.49,47.71"/>
    </edge>
    <edge id=":J11_2" function="internal">
        <lane id=":J11_2_0" index="0" speed="8.41" length="4.57" shape="641.33,64.31 639.62,60.71 639.65,60.12"/>
    </edge>
    <edge id=":J11_12" function="internal">
        <lane id=":J11_12_0" index="0" speed="8.41" length="11.75" shape="639.65,60.12 639.77,57.25 641.77,53.93 645.61,50.74"/>
    </edge>
    <edge id=":J11_3" function="internal">
        <lane id=":J11_3_0" index="0" speed="7.01" length="11.01" shape="647.37,53.41 644.62,55.64 643.13,57.88 642.90,60.15 643.93,62.44"/>
    </edge>
    <edge id=":J11_4" function="internal">
        <lane id=":J11_4_0" index="0" speed="13.89" length="16.76" shape="647.37,53.41 633.24,62.44"/>
    </edge>
    <edge id=":J11_5" function="internal">
        <lane id=":J11_5_0" index="0" speed="7.39" length="5.15" shape="647.37,53.41 642.73,55.65"/>
    </edge>
    <edge id=":J11_13" function="internal">
        <lane id=":J11_13_0" index="0" speed="7.39" length="11.88" shape="642.73,55.65 639.37,55.44 637.29,52.80 636.49,47.71"/>
    </edge>
    <edge id=":J11_6" function="internal">
        <lane id=":J11_6_0" index="0" speed="5.64" length="9.27" shape="639.69,47.63 640.13,50.40 641.26,51.84 643.09,51.95 645.61,50.74"/>
    </edge>
    <edge id=":J11_7" function="internal">
        <lane id=":J11_7_0" index="0" speed="13.89" length="15.60" shape="639.69,47.63 640.00,51.48 640.76,55.39 642.05,59.11 643.93,62.44"/>
    </edge>
    <edge id=":J11_8" function="internal">
        <lane id=":J11_8_0" index="0" speed="11.12" length="4.29" shape="639.69,47.63 639.43,51.91"/>
    </edge>
    <edge id=":J11_14" function="internal">
        <lane id=":J11_14_0" index="0" speed="11.12" length="12.64" shape="639.43,51.91 639.39,52.55 638.21,56.66 636.16,59.96 633.24,62.44"/>
    </edge>
    <edge id=":J11_9" function="internal">
        <lane id=":J11_9_0" index="0" speed="10.01" length="13.59" shape="631.56,59.72 633.80,57.78 635.37,55.12 636.27,51.77 636.49,47.71"/>
    </edge>
    <edge id=":J11_10" function="internal">
        <lane id=":J11_10_0" index="0" speed="13.89" length="16.68" shape="631.56,59.72 645.61,50.74"/>
    </edge>
    <edge id=":J11_11" function="internal">
        <lane id=":J11_11_0" index="0" speed="8.22" length="3.79" shape="631.56,59.72 635.03,58.22"/>
    </edge>
    <edge id=":J11_15" function="internal">
        <lane id=":J11_15_0" index="0" speed="8.22" length="10.44" shape="635.03,58.22 638.25,58.17 641.22,59.58 643.93,62.44"/>
    </edge>
    <edge id=":J4_0" function="internal">
        <lane id=":J4_0_0" index="0" speed="6.93" length="9.69" shape="156.11,94.22 153.58,93.25 151.33,93.22 149.35,94.16 147.65,96.05"/>
    </edge>
    <edge id=":J4_1" function="internal">
        <lane id=":J4_1_0" index="0" speed="13.89" length="14.89" shape="156.11,94.22 152.85,92.39 149.66,90.50 146.52,88.52 143.41,86.45"/>
    </edge>
    <edge id=":J4_2" function="internal">
        <lane id=":J4_2_0" index="0" speed="7.83" length="4.25" shape="156.11,94.22 152.87,91.79 152.77,91.61"/>
    </edge>
    <edge id=":J4_12" function="internal">
        <lane id=":J4_12_0" index="0" speed="7.83" length="10.33" shape="152.77,91.61 151.30,88.96 151.40,85.72 153.19,82.08"/>
    </edge>
    <edge id=":J4_3" function="internal">
        <lane id=":J4_3_0" index="0" speed="6.30" length="9.04" shape="155.83,83.88 154.72,86.14 154.66,88.15 155.63,89.91 157.64,91.41"/>
    </edge>
    <edge id=":J4_4" function="internal">
        <lane id=":J4_4_0" index="0" speed="13.89" length="14.66" shape="155.83,83.88 147.65,96.05"/>
    </edge>
    <edge id=":J4_5" function="internal">
        <lane id=":J4_5_0" index="0" speed="8.06" length="4.17" shape="155.83,83.88 153.12,86.88 153.00,86.93"/>
    </edge>
    <edge id=":J4_13" function="internal">
        <lane id=":J4_13_0" index="0" speed="8.06" length="10.30" shape="153.00,86.93 150.15,88.30 146.92,88.16 143.41,86.45"/>
    </edge>
    <edge id=":J4_6" function="internal">
        <lane id=":J4_6_0" index="0" speed="6.59" length="9.29" shape="145.22,83.81 147.46,84.89 149.53,84.96 151.44,84.03 153.19,82.08"/>
    </edge>
    <edge id=":J4_7" function="internal">
        <lane id=":J4_7_0" index="0" speed="13.89" length="14.57" shape="145.22,83.81 148.29,85.85 151.33,87.77 154.43,89.61 157.64,91.41"/>
    </edge>
    <edge id=":J4_8" function="internal">
        <lane id=":J4_8_0" index="0" speed="8.04" length="3.89" shape="145.22,83.81 148.09,86.44"/>
    </edge>
    <edge id=":J4_14" function="internal">
        <lane id=":J4_14_0" index="0" speed="8.04" length="10.29" shape="148.09,86.44 149.45,89.35 149.30,92.56 147.65,96.05"/>
    </edge>
    <edge id=":J4_9" function="internal">
        <lane id=":J4_9_0" index="0" speed="6.56" length="9.08" shape="144.98,94.28 146.04,92.05 146.13,90.00 145.25,88.13 143.41,86.45"/>
    </edge>
    <edge id=":J4_10" function="internal">
        <lane id=":J4_10_0" index="0" speed="13.89" length="14.70" shape="144.98,94.28 153.19,82.08"/>
    </edge>
    <edge id=":J4_11" function="internal">
        <lane id=":J4_11_0" index="0" speed="8.35" length="4.08" shape="144.98,94.28 147.56,91.41 147.75,91.31"/>
    </edge>
    <edge id=":J4_15" function="internal">
        <lane id=":J4_15_0" index="0" speed="8.35" length="10.46" shape="147.75,91.31 150.53,89.97 153.89,89.97 157.64,91.41"/>
    </edge>
    <edge id=":J5_0" function="internal">
        <lane id=":J5_0_0" index="0" speed="10.91" length="14.65" shape="240.07,135.04 235.89,135.18 232.31,136.06 229.31,137.69 226.91,140.05"/>
    </edge>
    <edge id=":J5_1" function="internal">
        <lane id=":J5_1_0" index="0" speed="13.89" length="17.92" shape="240.07,135.04 235.88,134.58 231.21,133.64 226.65,132.29 222.81,130.63"/>
    </edge>
    <edge id=":J5_2" function="internal">
        <lane id=":J5_2_0" index="0" speed="7.39" length="5.67" shape="240.07,135.04 234.98,134.11 234.60,133.79"/>
    </edge>
    <edge id=":J5_12" function="internal">
        <lane id=":J5_12_0" index="0" speed="7.39" length="11.40" shape="234.60,133.79 232.39,131.96 232.29,128.59 234.69,124.01"/>
    </edge>
    <edge id=":J5_3" function="internal">
        <lane id=":J5_3_0" index="0" speed="5.63" length="9.28" shape="237.31,125.85 236.01,128.34 236.06,130.17 237.47,131.34 240.23,131.85"/>
    </edge>
    <edge id=":J5_4" function="internal">
        <lane id=":J5_4_0" index="0" speed="13.89" length="17.60" shape="237.31,125.85 226.91,140.05"/>
    </edge>
    <edge id=":J5_5" function="internal">
        <lane id=":J5_5_0" index="0" speed="8.89" length="5.47" shape="237.31,125.85 234.38,128.66 233.11,129.30"/>
    </edge>
    <edge id=":J5_13" function="internal">
        <lane id=":J5_13_0" index="0" speed="8.89" length="10.77" shape="233.11,129.30 230.47,130.63 226.36,131.40 222.81,130.63"/>
    </edge>
    <edge id=":J5_6" function="internal">
        <lane id=":J5_6_0" index="0" speed="7.78" length="12.23" shape="224.34,127.82 227.07,128.72 229.70,128.38 232.24,126.81 234.69,124.01"/>
    </edge>
    <edge id=":J5_7" function="internal">
        <lane id=":J5_7_0" index="0" speed="13.89" length="16.50" shape="224.34,127.82 227.97,129.42 232.06,130.64 236.26,131.45 240.23,131.85"/>
    </edge>
    <edge id=":J5_8" function="internal">
        <lane id=":J5_8_0" index="0" speed="7.75" length="3.06" shape="224.34,127.82 226.79,129.65"/>
    </edge>
    <edge id=":J5_14" function="internal">
        <lane id=":J5_14_0" index="0" speed="7.75" length="11.77" shape="226.79,129.65 227.67,130.32 229.21,133.18 228.95,136.43 226.91,140.05"/>
    </edge>
    <edge id=":J5_9" function="internal">
        <lane id=":J5_9_0" index="0" speed="6.19" length="9.05" shape="224.37,138.09 225.62,135.88 225.78,133.90 224.84,132.15 222.81,130.63"/>
    </edge>
    <edge id=":J5_10" function="internal">
        <lane id=":J5_10_0" index="0" speed="13.89" length="17.46" shape="224.37,138.09 234.69,124.01"/>
    </edge>
    <edge id=":J5_11" function="internal">
        <lane id=":J5_11_0" index="0" speed="11.88" length="4.23" shape="224.37,138.09 227.21,135.65 227.65,135.43"/>
    </edge>
    <edge id=":J5_15" function="internal">
        <lane id=":J5_15_0" index="0" speed="11.88" length="13.24" shape="227.65,135.43 231.30,133.59 235.89,132.23 240.23,131.85"/>
    </edge>

    <edge id="-E0" from="J1" to="J0" priority="-1" spreadType="center" shape="85.29,44.70 146.96,-50.38">
        <lane id="-E0_0" index="0" speed="13.89" length="105.88" shape="89.34,38.45 146.96,-50.38"/>
    </edge>
    <edge id="-E1" from="J1" to="J2" priority="-1" spreadType="center" shape="85.68,46.83 -0.41,-17.68">
        <lane id="-E1_0" index="0" speed="13.89" length="100.16" shape="79.74,42.38 -0.41,-17.68"/>
    </edge>
    <edge id="-E10" from="J9" to="J5" priority="-1">
        <lane id="-E10_0" index="0" speed="13.89" length="108.80" shape="299.79,36.78 237.31,125.85"/>
    </edge>
    <edge id="-E11" from="J11" to="J10" priority="-1" spreadType="center" shape="639.19,58.76 495.02,147.95">
        <lane id="-E11_0" index="0" speed="13.89" length="153.06" shape="633.24,62.44 503.08,142.97"/>
    </edge>
    <edge id="-E12" from="J12" to="J10" priority="-1" spreadType="center" shape="470.08,404.66 492.59,146.45">
        <lane id="-E12_0" index="0" speed="13.89" length="251.88" shape="470.08,404.66 491.95,153.74"/>
    </edge>
    <edge id="-E13" from="J13" to="J10" priority="-1">
        <lane id="-E13_0" index="0" speed="13.89" length="237.91" shape="485.70,-100.66 495.39,137.06"/>
    </edge>
    <edge id="-E14" from="J14" to="J11" priority="-1">
        <lane id="-E14_0" index="0" speed="13.89" length="232.92" shape="633.72,-185.22 639.69,47.63"/>
    </edge>
    <edge id="-E15" from="J15" to="J11" priority="-1">
        <lane id="-E15_0" index="0" speed="13.89" length="219.27" shape="769.36,242.32 641.33,64.31"/>
    </edge>
    <edge id="-E16" from="J16" to="J11" priority="-1">
        <lane id="-E16_0" index="0" speed="13.89" length="244.23" shape="851.74,-80.30 647.37,53.41"/>
    </edge>
    <edge id="-E2" from="J3" to="J1" priority="-1" spreadType="center" shape="24.44,132.63 85.33,44.64">
        <lane id="-E2_0" index="0" speed="13.89" length="99.81" shape="24.44,132.63 81.24,50.55"/>
    </edge>
    <edge id="-E3" from="J4" to="J1" priority="-1" spreadType="center" shape="149.39,90.54 85.74,46.87">
        <lane id="-E3_0" index="0" speed="13.89" length="62.76" shape="143.41,86.45 91.66,50.94"/>
    </edge>
    <edge id="-E4" from="J5" to="J4" priority="-1" spreadType="center" shape="229.64,134.36 149.50,90.61">
        <lane id="-E4_0" index="0" speed="13.89" length="75.99" shape="222.81,130.63 156.11,94.22"/>
    </edge>
    <edge id="-E5" from="J4" to="J6" priority="-1" spreadType="center" shape="151.60,90.09 105.18,160.12">
        <lane id="-E5_0" index="0" speed="13.89" length="76.87" shape="147.65,96.05 105.18,160.12"/>
    </edge>
    <edge id="-E6" from="J5" to="J7" priority="-1" spreadType="center" shape="231.64,133.92 191.58,185.78">
        <lane id="-E6_0" index="0" speed="13.89" length="57.78" shape="226.91,140.05 191.58,185.78"/>
    </edge>
    <edge id="-E7" from="J8" to="J4" priority="-1" spreadType="center" shape="218.42,-7.90 151.59,90.11">
        <lane id="-E7_0" index="0" speed="13.89" length="111.09" shape="218.42,-7.90 155.83,83.88"/>
    </edge>
    <edge id="-E9" from="J10" to="J5" priority="-1">
        <lane id="-E9_0" index="0" speed="13.89" length="246.86" shape="486.60,147.80 240.07,135.04"/>
    </edge>
    <edge id="E0" from="J0" to="J1" priority="-1" spreadType="center" length="312.00" shape="149.64,-48.64 87.97,46.44">
        <lane id="E0_0" index="0" speed="13.89" length="312.00" shape="149.64,-48.64 92.03,40.20"/>
    </edge>
    <edge id="E1" from="J2" to="J1" priority="-1" spreadType="center" length="208.00" shape="1.51,-20.24 87.60,44.27">
        <lane id="E1_0" index="0" speed="13.89" length="208.00" shape="1.51,-20.24 81.66,39.82"/>
    </edge>
    <edge id="E10" from="J5" to="J9" priority="-1">
        <lane id="E10_0" index="0" speed="13.89" length="108.80" shape="234.69,124.01 297.17,34.95"/>
    </edge>
    <edge id="E11" from="J10" to="J11" priority="-1" spreadType="center" shape="493.34,145.23 637.51,56.04">
        <lane id="E11_0" index="0" speed="13.89" length="153.06" shape="501.40,140.25 631.56,59.72"/>
    </edge>
    <edge id="E12" from="J10" to="J12" priority="-1" spreadType="center" shape="495.77,146.73 473.26,404.94">
        <lane id="E12_0" index="0" speed="13.89" length="251.88" shape="495.14,154.02 473.26,404.94"/>
    </edge>
    <edge id="E13" from="J10" to="J13" priority="-1">
        <lane id="E13_0" index="0" speed="13.89" length="237.91" shape="492.19,137.19 482.50,-100.53"/>
    </edge>
    <edge id="E14" from="J11" to="J14" priority="-1">
        <lane id="E14_0" index="0" speed="13.89" length="232.92" shape="636.49,47.71 630.52,-185.13"/>
    </edge>
    <edge id="E15" from="J11" to="J15" priority="-1">
        <lane id="E15_0" index="0" speed="13.89" length="219.27" shape="643.93,62.44 771.96,240.45"/>
    </edge>
    <edge id="E16" from="J11" to="J16" priority="-1">
        <lane id="E16_0" index="0" speed="13.89" length="244.23" shape="645.61,50.74 849.99,-82.97"/>
    </edge>
    <edge id="E2" from="J1" to="J3" priority="-1" spreadType="center" length="300.00" shape="87.96,46.46 27.08,134.45">
        <lane id="E2_0" index="0" speed="13.89" length="300.00" shape="83.87,52.37 27.08,134.45"/>
    </edge>
    <edge id="E3" from="J1" to="J4" priority="-1" spreadType="center" shape="87.55,44.23 151.20,87.91">
        <lane id="E3_0" index="0" speed="13.89" length="62.76" shape="93.48,48.30 145.22,83.81"/>
    </edge>
    <edge id="E4" from="J4" to="J5" priority="-1" spreadType="center" shape="151.03,87.80 231.17,131.55">
        <lane id="E4_0" index="0" speed="13.89" length="75.99" shape="157.64,91.41 224.34,127.82"/>
    </edge>
    <edge id="E5" from="J6" to="J4" priority="-1" spreadType="center" shape="102.51,158.35 148.93,88.32">
        <lane id="E5_0" index="0" speed="13.89" length="76.87" shape="102.51,158.35 144.98,94.28"/>
    </edge>
    <edge id="E6" from="J7" to="J5" priority="-1" spreadType="center" shape="189.05,183.82 229.11,131.96">
        <lane id="E6_0" index="0" speed="13.89" length="57.78" shape="189.05,183.82 224.37,138.09"/>
    </edge>
    <edge id="E7" from="J4" to="J8" priority="-1" spreadType="center" shape="148.94,88.31 215.77,-9.70">
        <lane id="E7_0" index="0" speed="13.89" length="111.09" shape="153.19,82.08 215.77,-9.70"/>
    </edge>
    <edge id="E9" from="J5" to="J10" priority="-1">
        <lane id="E9_0" index="0" speed="13.89" length="246.86" shape="240.23,131.85 486.76,144.61"/>
    </edge>

    <tlLogic id="J1" type="static" programID="0" offset="0">
        <phase duration="42" state="rrrGGgrrrGGg"/>
        <phase duration="3"  state="rrryyyrrryyy"/>
        <phase duration="42" state="GGgrrrGGgrrr"/>
        <phase duration="3"  state="yyyrrryyyrrr"/>
    </tlLogic>
    <tlLogic id="J10" type="static" programID="0" offset="0">
        <phase duration="42" state="rrrGGgrrrGGg"/>
        <phase duration="3"  state="rrryyyrrryyy"/>
        <phase duration="42" state="GGgrrrGGgrrr"/>
        <phase duration="3"  state="yyyrrryyyrrr"/>
    </tlLogic>
    <tlLogic id="J11" type="static" programID="0" offset="0">
        <phase duration="42" state="rrrGGgrrrGGg"/>
        <phase duration="3"  state="rrryyyrrryyy"/>
        <phase duration="42" state="GGgrrrGGgrrr"/>
        <phase duration="3"  state="yyyrrryyyrrr"/>
    </tlLogic>
    <tlLogic id="J4" type="static" programID="0" offset="0">
        <phase duration="42" state="rrrGGgrrrGGg"/>
        <phase duration="3"  state="rrryyyrrryyy"/>
        <phase duration="42" state="GGgrrrGGgrrr"/>
        <phase duration="3"  state="yyyrrryyyrrr"/>
    </tlLogic>
    <tlLogic id="J5" type="static" programID="0" offset="0">
        <phase duration="42" state="rrrGGgrrrGGg"/>
        <phase duration="3"  state="rrryyyrrryyy"/>
        <phase duration="42" state="GGgrrrGGgrrr"/>
        <phase duration="3"  state="yyyrrryyyrrr"/>
    </tlLogic>

    <junction id="J0" type="dead_end" x="148.30" y="-49.51" incLanes="-E0_0" intLanes="" shape="148.30,-49.51 145.61,-51.25 148.30,-49.51"/>
    <junction id="J1" type="traffic_light" x="86.64" y="45.55" incLanes="-E3_0 E0_0 E1_0 -E2_0" intLanes=":J1_0_0 :J1_1_0 :J1_12_0 :J1_3_0 :J1_4_0 :J1_13_0 :J1_6_0 :J1_7_0 :J1_14_0 :J1_9_0 :J1_10_0 :J1_15_0" shape="90.76,52.26 94.38,46.98 92.78,45.30 92.45,44.35 92.44,43.33 92.75,42.23 93.37,41.07 88.00,37.58 86.43,39.18 85.57,39.50 84.64,39.50 83.66,39.18 82.62,38.54 78.78,43.66 80.45,45.48 80.81,46.46 80.83,47.48 80.54,48.54 79.92,49.64 85.19,53.29 86.82,51.71 87.72,51.38 88.67,51.37 89.69,51.66">
        <request index="0"  response="000000010000" foes="000100010000" cont="0"/>
        <request index="1"  response="111000110000" foes="111100110000" cont="0"/>
        <request index="2"  response="110111110000" foes="110111110000" cont="1"/>
        <request index="3"  response="000000000000" foes="100010000000" cont="0"/>
        <request index="4"  response="000100000100" foes="100110000111" cont="0"/>
        <request index="5"  response="011100000100" foes="111110000110" cont="1"/>
        <request index="6"  response="010000000000" foes="010000000100" cont="0"/>
        <request index="7"  response="110000111000" foes="110000111100" cont="0"/>
        <request index="8"  response="110000110011" foes="110000110111" cont="1"/>
        <request index="9"  response="000000000000" foes="000000100010" cont="0"/>
        <request index="10" response="000100000100" foes="000111100110" cont="0"/>
        <request index="11" response="000100111100" foes="000110111110" cont="1"/>
    </junction>
    <junction id="J10" type="traffic_light" x="494.18" y="146.59" incLanes="-E11_0 -E13_0 E9_0 -E12_0" intLanes=":J10_0_0 :J10_1_0 :J10_12_0 :J10_3_0 :J10_4_0 :J10_13_0 :J10_6_0 :J10_7_0 :J10_14_0 :J10_9_0 :J10_10_0 :J10_15_0" shape="503.92,144.33 500.55,138.89 498.65,139.61 497.96,139.47 497.46,138.98 497.13,138.16 496.99,136.99 490.60,137.25 490.29,140.54 489.78,141.67 489.04,142.46 488.06,142.91 486.84,143.01 486.51,149.40 488.80,149.96 489.57,150.56 490.08,151.36 490.35,152.38 490.36,153.60 496.73,154.16 497.75,150.54 498.78,148.86 500.15,147.26 501.86,145.75">
        <request index="0"  response="000000010000" foes="000100010000" cont="0"/>
        <request index="1"  response="111000110000" foes="111100110000" cont="0"/>
        <request index="2"  response="110011110000" foes="110011110000" cont="1"/>
        <request index="3"  response="000000000000" foes="100010000000" cont="0"/>
        <request index="4"  response="000100000100" foes="100110000111" cont="0"/>
        <request index="5"  response="011100000100" foes="011110000110" cont="1"/>
        <request index="6"  response="010000000000" foes="010000000100" cont="0"/>
        <request index="7"  response="110000111000" foes="110000111100" cont="0"/>
        <request index="8"  response="110000110011" foes="110000110011" cont="1"/>
        <request index="9"  response="000000000000" foes="000000100010" cont="0"/>
        <request index="10" response="000100000100" foes="000111100110" cont="0"/>
        <request index="11" response="000100011100" foes="000110011110" cont="1"/>
    </junction>
    <junction id="J11" type="traffic_light" x="638.34" y="57.41" incLanes="-E15_0 -E16_0 -E14_0 E11_0" intLanes=":J11_0_0 :J11_1_0 :J11_12_0 :J11_3_0 :J11_4_0 :J11_13_0 :J11_6_0 :J11_7_0 :J11_14_0 :J11_9_0 :J11_10_0 :J11_15_0" shape="640.03,65.24 645.23,61.50 644.52,59.31 644.81,58.19 645.53,57.06 646.67,55.91 648.24,54.75 644.74,49.40 642.87,50.17 642.20,50.04 641.72,49.57 641.41,48.75 641.29,47.59 634.89,47.75 634.83,50.24 634.52,52.44 633.95,54.36 633.13,55.98 632.05,57.32 630.72,58.36 634.08,63.80 636.26,63.03 637.27,63.11 638.24,63.51 639.16,64.22">
        <request index="0"  response="000000010000" foes="000100010000" cont="0"/>
        <request index="1"  response="111000110000" foes="111100110000" cont="0"/>
        <request index="2"  response="110011110000" foes="110111110000" cont="1"/>
        <request index="3"  response="000000000000" foes="100010000000" cont="0"/>
        <request index="4"  response="000100000100" foes="100110000111" cont="0"/>
        <request index="5"  response="011100000100" foes="011110000110" cont="1"/>
        <request index="6"  response="010000000000" foes="010000000100" cont="0"/>
        <request index="7"  response="110000111000" foes="110000111100" cont="0"/>
        <request index="8"  response="110000110111" foes="110000110111" cont="1"/>
        <request index="9"  response="000000000000" foes="000000100010" cont="0"/>
        <request index="10" response="000100000100" foes="000111100110" cont="0"/>
        <request index="11" response="000100011100" foes="000110011110" cont="1"/>
    </junction>
    <junction id="J12" type="dead_end" x="471.67" y="404.79" incLanes="E12_0" intLanes="" shape="471.67,404.79 474.86,405.07 471.67,404.79"/>
    <junction id="J13" type="dead_end" x="484.10" y="-100.59" incLanes="E13_0" intLanes="" shape="484.10,-100.59 480.90,-100.46 484.10,-100.59"/>
    <junction id="J14" type="dead_end" x="632.12" y="-185.18" incLanes="E14_0" intLanes="" shape="632.12,-185.18 628.92,-185.09 632.12,-185.18"/>
    <junction id="J15" type="dead_end" x="770.66" y="241.39" incLanes="E15_0" intLanes="" shape="770.66,241.39 773.26,239.52 770.66,241.39"/>
    <junction id="J16" type="dead_end" x="850.87" y="-81.63" incLanes="E16_0" intLanes="" shape="850.87,-81.63 849.11,-84.31 850.87,-81.63"/>
    <junction id="J2" type="dead_end" x="0.56" y="-18.95" incLanes="-E1_0" intLanes="" shape="0.56,-18.95 -1.35,-16.39 0.56,-18.95"/>
    <junction id="J3" type="dead_end" x="25.77" y="133.52" incLanes="E2_0" intLanes="" shape="25.77,133.52 28.40,135.34 25.77,133.52"/>