<?xml version="1.0" encoding="UTF-8"?>

<!-- generated on 2025-03-02 21:06:11 by Eclipse SUMO netedit Version 1.20.0
-->

<routes xmlns:xsi="http://www.w3.org/2001/XMLSchema-instance" xsi:noNamespaceSchemaLocation="http://sumo.dlr.de/xsd/routes_file.xsd">
    <!-- Vehicles, persons and containers (sorted by depart) -->
    <flow id="f_0" begin="0.00" from="E1" to="E16" end="3600.00" vehsPerHour="1800"/>
    <flow id="f_1" begin="0.00" from="-E16" to="-E1" end="3600.00" vehsPerHour="180"/>
    <flow id="f_10" begin="0.00" from="-E14" to="E15" end="3600.00" vehsPerHour="300"/>
    <flow id="f_11" begin="0.00" from="-E15" to="E14" end="3600.00" vehsPerHour="300"/>
    <flow id="f_2" begin="0.00" from="-E13" to="E12" end="3600.00" vehsPerHour="300"/>
    <flow id="f_3" begin="0.00" from="-E12" to="E13" end="3600.00" vehsPerHour="300"/>
    <flow id="f_4" begin="0.00" from="-E10" to="-E6" end="3600.00" vehsPerHour="300"/>
    <flow id="f_5" begin="0.00" from="E6" to="E10" end="3600.00" vehsPerHour="300"/>
    <flow id="f_6" begin="0.00" from="-E7" to="-E5" end="3600.00" vehsPerHour="300"/>
    <flow id="f_7" begin="0.00" from="E5" to="E7" end="3600.00" vehsPerHour="300"/>
    <flow id="f_8" begin="0.00" from="E0" to="E2" end="3600.00" vehsPerHour="300"/>
    <flow id="f_9" begin="0.00" from="-E2" to="-E0" end="3600.00" vehsPerHour="300"/>
</routes>
