<?xml version="1.0" encoding="UTF-8"?>

<!-- generated on 2025-02-27 00:13:53 by Eclipse SUMO netedit Version 1.20.0
<configuration xmlns:xsi="http://www.w3.org/2001/XMLSchema-instance" xsi:noNamespaceSchemaLocation="http://sumo.dlr.de/xsd/neteditConfiguration.xsd">

    <input>
        <sumocfg-file value="/home/refo/Documents/Github/marl/scenarios/syn_4_4/simulation.sumocfg"/>
        <additional-files value=""/>
        <route-files value="/home/refo/Documents/Github/marl/scenarios/syn_4_4/routes.rou.xml"/>
        <sumo-net-file value="/home/refo/Documents/Github/marl/scenarios/syn_4_4/network.net.xml"/>
    </input>

    <output>
        <output-file value="/home/refo/Documents/Github/marl/scenarios/syn_4_4/network.net.xml"/>
    </output>

    <processing>
        <geometry.min-radius.fix.railways value="false"/>
        <geometry.max-grade.fix value="false"/>
        <offset.disable-normalization value="true"/>
        <lefthand value="0"/>
    </processing>

    <junctions>
        <no-turnarounds value="true"/>
        <junctions.corner-detail value="5"/>
        <junctions.limit-turn-speed value="5.50"/>
        <rectangular-lane-cut value="0"/>
    </junctions>

    <pedestrian>
        <walkingareas value="0"/>
    </pedestrian>

</configuration>
-->

<net version="1.20" junctionCornerDetail="5" limitTurnSpeed="5.50" xmlns:xsi="http://www.w3.org/2001/XMLSchema-instance" xsi:noNamespaceSchemaLocation="http://sumo.dlr.de/xsd/net_file.xsd">

    <location netOffset="0.00,0.00" convBoundary="-300.00,-300.00,1200.08,1200.08" origBoundary="-300.00,-300.00,1200.00,1200.00" projParameter="!"/>

    <edge id=":intersection_1_1_0" function="internal">
        <lane id=":intersection_1_1_0_0" index="0" speed="6.51" length="9.03" shape="-8.00,13.60 -8.35,11.15 -9.40,9.40 -11.15,8.35 -13.60,8.00"/>
        <lane id=":intersection_1_1_0_1" index="1" speed="7.33" length="11.73" shape="-8.00,13.60 -8.35,9.75 -9.40,7.00 -11.15,5.35 -13.60,4.80"/>
        <lane id=":intersection_1_1_0_2" index="2" speed="8.10" length="14.57" shape="-8.00,13.60 -8.35,8.35 -9.40,4.60 -11.15,2.35 -13.60,1.60"/>
    </edge>
    <edge id=":intersection_1_1_3" function="internal">
        <lane id=":intersection_1_1_3_0" index="0" speed="11.11" length="27.37" shape="-4.80,13.60 -5.30,5.50 -6.40,0.00 -7.50,-5.50 -8.00,-13.60"/>
        <lane id=":intersection_1_1_3_1" index="1" speed="11.11" length="27.37" shape="-4.80,13.60 -4.80,-13.60"/>
        <lane id=":intersection_1_1_3_2" index="2" speed="11.11" length="27.37" shape="-4.80,13.60 -4.30,5.50 -3.20,-0.00 -2.10,-5.50 -1.60,-13.60"/>
    </edge>
    <edge id=":intersection_1_1_6" function="internal">
        <lane id=":intersection_1_1_6_0" index="0" speed="11.11" length="22.18" shape="-1.60,13.60 -0.65,4.15 2.20,-2.60 6.27,-6.07"/>
        <lane id=":intersection_1_1_6_1" index="1" speed="10.88" length="20.74" shape="-1.60,13.60 -0.65,5.55 2.20,-0.20 6.95,-3.65 7.29,-3.71"/>
        <lane id=":intersection_1_1_6_2" index="2" speed="10.36" length="21.49" shape="-1.60,13.60 -0.65,6.95 2.20,2.20 6.95,-0.65 10.61,-1.17"/>
    </edge>
    <edge id=":intersection_1_1_36" function="internal">
        <lane id=":intersection_1_1_36_0" index="0" speed="11.11" length="7.68" shape="6.27,-6.07 6.95,-6.65 13.60,-8.00"/>
    </edge>
    <edge id=":intersection_1_1_37" function="internal">
        <lane id=":intersection_1_1_37_0" index="0" speed="10.88" length="6.40" shape="7.29,-3.71 13.60,-4.80"/>
    </edge>
    <edge id=":intersection_1_1_38" function="internal">
        <lane id=":intersection_1_1_38_0" index="0" speed="10.36" length="3.02" shape="10.61,-1.17 13.60,-1.60"/>
    </edge>
    <edge id=":intersection_1_1_9" function="internal">
        <lane id=":intersection_1_1_9_0" index="0" speed="6.51" length="9.03" shape="13.60,8.00 11.15,8.35 9.40,9.40 8.35,11.15 8.00,13.60"/>
        <lane id=":intersection_1_1_9_1" index="1" speed="7.33" length="11.73" shape="13.60,8.00 9.75,8.35 7.00,9.40 5.35,11.15 4.80,13.60"/>
        <lane id=":intersection_1_1_9_2" index="2" speed="8.10" length="14.57" shape="13.60,8.00 8.35,8.35 4.60,9.40 2.35,11.15 1.60,13.60"/>
    </edge>
    <edge id=":intersection_1_1_12" function="internal">
        <lane id=":intersection_1_1_12_0" index="0" speed="11.11" length="27.37" shape="13.60,4.80 5.50,5.30 0.00,6.40 -5.50,7.50 -13.60,8.00"/>
        <lane id=":intersection_1_1_12_1" index="1" speed="11.11" length="27.37" shape="13.60,4.80 -13.60,4.80"/>
        <lane id=":intersection_1_1_12_2" index="2" speed="11.11" length="27.37" shape="13.60,4.80 5.50,4.30 -0.00,3.20 -5.50,2.10 -13.60,1.60"/>
    </edge>
    <edge id=":intersection_1_1_15" function="internal">
        <lane id=":intersection_1_1_15_0" index="0" speed="11.11" length="22.18" shape="13.60,1.60 4.15,0.65 -2.60,-2.20 -6.07,-6.27"/>
        <lane id=":intersection_1_1_15_1" index="1" speed="10.88" length="20.74" shape="13.60,1.60 5.55,0.65 -0.20,-2.20 -3.65,-6.95 -3.71,-7.29"/>
        <lane id=":intersection_1_1_15_2" index="2" speed="10.36" length="21.49" shape="13.60,1.60 6.95,0.65 2.20,-2.20 -0.65,-6.95 -1.17,-10.61"/>
    </edge>
    <edge id=":intersection_1_1_39" function="internal">
        <lane id=":intersection_1_1_39_0" index="0" speed="11.11" length="7.68" shape="-6.07,-6.27 -6.65,-6.95 -8.00,-13.60"/>
    </edge>
    <edge id=":intersection_1_1_40" function="internal">
        <lane id=":intersection_1_1_40_0" index="0" speed="10.88" length="6.40" shape="-3.71,-7.29 -4.80,-13.60"/>
    </edge>
    <edge id=":intersection_1_1_41" function="internal">
        <lane id=":intersection_1_1_41_0" index="0" speed="10.36" length="3.02" shape="-1.17,-10.61 -1.60,-13.60"/>
    </edge>
    <edge id=":intersection_1_1_18" function="internal">
        <lane id=":intersection_1_1_18_0" index="0" speed="6.51" length="9.03" shape="8.00,-13.60 8.35,-11.15 9.40,-9.40 11.15,-8.35 13.60,-8.00"/>
        <lane id=":intersection_1_1_18_1" index="1" speed="7.33" length="11.73" shape="8.00,-13.60 8.35,-9.75 9.40,-7.00 11.15,-5.35 13.60,-4.80"/>
        <lane id=":intersection_1_1_18_2" index="2" speed="8.10" length="14.57" shape="8.00,-13.60 8.35,-8.35 9.40,-4.60 11.15,-2.35 13.60,-1.60"/>
    </edge>
    <edge id=":intersection_1_1_21" function="internal">
        <lane id=":intersection_1_1_21_0" index="0" speed="11.11" length="27.37" shape="4.80,-13.60 5.30,-5.50 6.40,0.00 7.50,5.50 8.00,13.60"/>
        <lane id=":intersection_1_1_21_1" index="1" speed="11.11" length="27.37" shape="4.80,-13.60 4.80,13.60"/>
        <lane id=":intersection_1_1_21_2" index="2" speed="11.11" length="27.37" shape="4.80,-13.60 4.30,-5.50 3.20,-0.00 2.10,5.50 1.60,13.60"/>
    </edge>
    <edge id=":intersection_1_1_24" function="internal">
        <lane id=":intersection_1_1_24_0" index="0" speed="11.11" length="22.18" shape="1.60,-13.60 0.65,-4.15 -2.20,2.60 -6.27,6.07"/>
        <lane id=":intersection_1_1_24_1" index="1" speed="10.88" length="20.74" shape="1.60,-13.60 0.65,-5.55 -2.20,0.20 -6.95,3.65 -7.29,3.71"/>
        <lane id=":intersection_1_1_24_2" index="2" speed="10.36" length="21.49" shape="1.60,-13.60 0.65,-6.95 -2.20,-2.20 -6.95,0.65 -10.61,1.17"/>
    </edge>
    <edge id=":intersection_1_1_42" function="internal">
        <lane id=":intersection_1_1_42_0" index="0" speed="11.11" length="7.68" shape="-6.27,6.07 -6.95,6.65 -13.60,8.00"/>
    </edge>
    <edge id=":intersection_1_1_43" function="internal">
        <lane id=":intersection_1_1_43_0" index="0" speed="10.88" length="6.40" shape="-7.29,3.71 -13.60,4.80"/>
    </edge>
    <edge id=":intersection_1_1_44" function="internal">
        <lane id=":intersection_1_1_44_0" index="0" speed="10.36" length="3.02" shape="-10.61,1.17 -13.60,1.60"/>
    </edge>
    <edge id=":intersection_1_1_27" function="internal">
        <lane id=":intersection_1_1_27_0" index="0" speed="6.51" length="9.03" shape="-13.60,-8.00 -11.15,-8.35 -9.40,-9.40 -8.35,-11.15 -8.00,-13.60"/>
        <lane id=":intersection_1_1_27_1" index="1" speed="7.33" length="11.73" shape="-13.60,-8.00 -9.75,-8.35 -7.00,-9.40 -5.35,-11.15 -4.80,-13.60"/>
        <lane id=":intersection_1_1_27_2" index="2" speed="8.10" length="14.57" shape="-13.60,-8.00 -8.35,-8.35 -4.60,-9.40 -2.35,-11.15 -1.60,-13.60"/>
    </edge>
    <edge id=":intersection_1_1_30" function="internal">
        <lane id=":intersection_1_1_30_0" index="0" speed="11.11" length="27.37" shape="-13.60,-4.80 -5.50,-5.30 0.00,-6.40 5.50,-7.50 13.60,-8.00"/>
        <lane id=":intersection_1_1_30_1" index="1" speed="11.11" length="27.37" shape="-13.60,-4.80 13.60,-4.80"/>
        <lane id=":intersection_1_1_30_2" index="2" speed="11.11" length="27.37" shape="-13.60,-4.80 -5.50,-4.30 -0.00,-3.20 5.50,-2.10 13.60,-1.60"/>
    </edge>
    <edge id=":intersection_1_1_33" function="internal">
        <lane id=":intersection_1_1_33_0" index="0" speed="11.11" length="22.18" shape="-13.60,-1.60 -4.15,-0.65 2.60,2.20 6.07,6.27"/>
        <lane id=":intersection_1_1_33_1" index="1" speed="10.88" length="20.74" shape="-13.60,-1.60 -5.55,-0.65 0.20,2.20 3.65,6.95 3.71,7.29"/>
        <lane id=":intersection_1_1_33_2" index="2" speed="10.36" length="21.49" shape="-13.60,-1.60 -6.95,-0.65 -2.20,2.20 0.65,6.95 1.17,10.61"/>
    </edge>
    <edge id=":intersection_1_1_45" function="internal">
        <lane id=":intersection_1_1_45_0" index="0" speed="11.11" length="7.68" shape="6.07,6.27 6.65,6.95 8.00,13.60"/>
    </edge>
    <edge id=":intersection_1_1_46" function="internal">
        <lane id=":intersection_1_1_46_0" index="0" speed="10.88" length="6.40" shape="3.71,7.29 4.80,13.60"/>
    </edge>
    <edge id=":intersection_1_1_47" function="internal">
        <lane id=":intersection_1_1_47_0" index="0" speed="10.36" length="3.02" shape="1.17,10.61 1.60,13.60"/>
    </edge>
    <edge id=":intersection_1_2_0" function="internal">
        <lane id=":intersection_1_2_0_0" index="0" speed="6.51" length="9.03" shape="-8.00,313.60 -8.35,311.15 -9.40,309.40 -11.15,308.35 -13.60,308.00"/>
        <lane id=":intersection_1_2_0_1" index="1" speed="7.33" length="11.73" shape="-8.00,313.60 -8.35,309.75 -9.40,307.00 -11.15,305.35 -13.60,304.80"/>
        <lane id=":intersection_1_2_0_2" index="2" speed="8.10" length="14.57" shape="-8.00,313.60 -8.35,308.35 -9.40,304.60 -11.15,302.35 -13.60,301.60"/>
    </edge>
    <edge id=":intersection_1_2_3" function="internal">
        <lane id=":intersection_1_2_3_0" index="0" speed="11.11" length="27.37" shape="-4.80,313.60 -5.30,305.50 -6.40,300.00 -7.50,294.50 -8.00,286.40"/>
        <lane id=":intersection_1_2_3_1" index="1" speed="11.11" length="27.37" shape="-4.80,313.60 -4.80,286.40"/>
        <lane id=":intersection_1_2_3_2" index="2" speed="11.11" length="27.37" shape="-4.80,313.60 -4.30,305.50 -3.20,300.00 -2.10,294.50 -1.60,286.40"/>
    </edge>
    <edge id=":intersection_1_2_6" function="internal">
        <lane id=":intersection_1_2_6_0" index="0" speed="11.11" length="22.18" shape="-1.60,313.60 -0.65,304.15 2.20,297.40 6.27,293.93"/>
        <lane id=":intersection_1_2_6_1" index="1" speed="10.88" length="20.74" shape="-1.60,313.60 -0.65,305.55 2.20,299.80 6.95,296.35 7.29,296.29"/>
        <lane id=":intersection_1_2_6_2" index="2" speed="10.36" length="21.49" shape="-1.60,313.60 -0.65,306.95 2.20,302.20 6.95,299.35 10.61,298.83"/>
    </edge>
    <edge id=":intersection_1_2_36" function="internal">
        <lane id=":intersection_1_2_36_0" index="0" speed="11.11" length="7.68" shape="6.27,293.93 6.95,293.35 13.60,292.00"/>
    </edge>
    <edge id=":intersection_1_2_37" function="internal">
        <lane id=":intersection_1_2_37_0" index="0" speed="10.88" length="6.40" shape="7.29,296.29 13.60,295.20"/>
    </edge>
    <edge id=":intersection_1_2_38" function="internal">
        <lane id=":intersection_1_2_38_0" index="0" speed="10.36" length="3.02" shape="10.61,298.83 13.60,298.40"/>
    </edge>
    <edge id=":intersection_1_2_9" function="internal">
        <lane id=":intersection_1_2_9_0" index="0" speed="6.51" length="9.03" shape="13.60,308.00 11.15,308.35 9.40,309.40 8.35,311.15 8.00,313.60"/>
        <lane id=":intersection_1_2_9_1" index="1" speed="7.33" length="11.73" shape="13.60,308.00 9.75,308.35 7.00,309.40 5.35,311.15 4.80,313.60"/>
        <lane id=":intersection_1_2_9_2" index="2" speed="8.10" length="14.57" shape="13.60,308.00 8.35,308.35 4.60,309.40 2.35,311.15 1.60,313.60"/>
    </edge>
    <edge id=":intersection_1_2_12" function="internal">
        <lane id=":intersection_1_2_12_0" index="0" speed="11.11" length="27.37" shape="13.60,304.80 5.50,305.30 0.00,306.40 -5.50,307.50 -13.60,308.00"/>
        <lane id=":intersection_1_2_12_1" index="1" speed="11.11" length="27.37" shape="13.60,304.80 -13.60,304.80"/>
        <lane id=":intersection_1_2_12_2" index="2" speed="11.11" length="27.37" shape="13.60,304.80 5.50,304.30 -0.00,303.20 -5.50,302.10 -13.60,301.60"/>
    </edge>
    <edge id=":intersection_1_2_15" function="internal">
        <lane id=":intersection_1_2_15_0" index="0" speed="11.11" length="22.18" shape="13.60,301.60 4.15,300.65 -2.60,297.80 -6.07,293.73"/>
        <lane id=":intersection_1_2_15_1" index="1" speed="10.88" length="20.74" shape="13.60,301.60 5.55,300.65 -0.20,297.80 -3.65,293.05 -3.71,292.71"/>
        <lane id=":intersection_1_2_15_2" index="2" speed="10.36" length="21.49" shape="13.60,301.60 6.95,300.65 2.20,297.80 -0.65,293.05 -1.17,289.39"/>
    </edge>
    <edge id=":intersection_1_2_39" function="internal">
        <lane id=":intersection_1_2_39_0" index="0" speed="11.11" length="7.68" shape="-6.07,293.73 -6.65,293.05 -8.00,286.40"/>
    </edge>
    <edge id=":intersection_1_2_40" function="internal">
        <lane id=":intersection_1_2_40_0" index="0" speed="10.88" length="6.40" shape="-3.71,292.71 -4.80,286.40"/>
    </edge>
    <edge id=":intersection_1_2_41" function="internal">
        <lane id=":intersection_1_2_41_0" index="0" speed="10.36" length="3.02" shape="-1.17,289.39 -1.60,286.40"/>
    </edge>
    <edge id=":intersection_1_2_18" function="internal">
        <lane id=":intersection_1_2_18_0" index="0" speed="6.51" length="9.03" shape="8.00,286.40 8.35,288.85 9.40,290.60 11.15,291.65 13.60,292.00"/>
        <lane id=":intersection_1_2_18_1" index="1" speed="7.33" length="11.73" shape="8.00,286.40 8.35,290.25 9.40,293.00 11.15,294.65 13.60,295.20"/>
        <lane id=":intersection_1_2_18_2" index="2" speed="8.10" length="14.57" shape="8.00,286.40 8.35,291.65 9.40,295.40 11.15,297.65 13.60,298.40"/>
    </edge>
    <edge id=":intersection_1_2_21" function="internal">
        <lane id=":intersection_1_2_21_0" index="0" speed="11.11" length="27.37" shape="4.80,286.40 5.30,294.50 6.40,300.00 7.50,305.50 8.00,313.60"/>
        <lane id=":intersection_1_2_21_1" index="1" speed="11.11" length="27.37" shape="4.80,286.40 4.80,313.60"/>
        <lane id=":intersection_1_2_21_2" index="2" speed="11.11" length="27.37" shape="4.80,286.40 4.30,294.50 3.20,300.00 2.10,305.50 1.60,313.60"/>
    </edge>
    <edge id=":intersection_1_2_24" function="internal">
        <lane id=":intersection_1_2_24_0" index="0" speed="11.11" length="22.18" shape="1.60,286.40 0.65,295.85 -2.20,302.60 -6.27,306.07"/>
        <lane id=":intersection_1_2_24_1" index="1" speed="10.88" length="20.74" shape="1.60,286.40 0.65,294.45 -2.20,300.20 -6.95,303.65 -7.29,303.71"/>
        <lane id=":intersection_1_2_24_2" index="2" speed="10.36" length="21.49" shape="1.60,286.40 0.65,293.05 -2.20,297.80 -6.95,300.65 -10.61,301.17"/>
    </edge>
    <edge id=":intersection_1_2_42" function="internal">
        <lane id=":intersection_1_2_42_0" index="0" speed="11.11" length="7.68" shape="-6.27,306.07 -6.95,306.65 -13.60,308.00"/>
    </edge>
    <edge id=":intersection_1_2_43" function="internal">
        <lane id=":intersection_1_2_43_0" index="0" speed="10.88" length="6.40" shape="-7.29,303.71 -13.60,304.80"/>
    </edge>
    <edge id=":intersection_1_2_44" function="internal">
        <lane id=":intersection_1_2_44_0" index="0" speed="10.36" length="3.02" shape="-10.61,301.17 -13.60,301.60"/>
    </edge>
    <edge id=":intersection_1_2_27" function="internal">
        <lane id=":intersection_1_2_27_0" index="0" speed="6.51" length="9.03" shape="-13.60,292.00 -11.15,291.65 -9.40,290.60 -8.35,288.85 -8.00,286.40"/>
        <lane id=":intersection_1_2_27_1" index="1" speed="7.33" length="11.73" shape="-13.60,292.00 -9.75,291.65 -7.00,290.60 -5.35,288.85 -4.80,286.40"/>
        <lane id=":intersection_1_2_27_2" index="2" speed="8.10" length="14.57" shape="-13.60,292.00 -8.35,291.65 -4.60,290.60 -2.35,288.85 -1.60,286.40"/>
    </edge>
    <edge id=":intersection_1_2_30" function="internal">
        <lane id=":intersection_1_2_30_0" index="0" speed="11.11" length="27.37" shape="-13.60,295.20 -5.50,294.70 0.00,293.60 5.50,292.50 13.60,292.00"/>
        <lane id=":intersection_1_2_30_1" index="1" speed="11.11" length="27.37" shape="-13.60,295.20 13.60,295.20"/>
        <lane id=":intersection_1_2_30_2" index="2" speed="11.11" length="27.37" shape="-13.60,295.20 -5.50,295.70 -0.00,296.80 5.50,297.90 13.60,298.40"/>
    </edge>
    <edge id=":intersection_1_2_33" function="internal">
        <lane id=":intersection_1_2_33_0" index="0" speed="11.11" length="22.18" shape="-13.60,298.40 -4.15,299.35 2.60,302.20 6.07,306.27"/>
        <lane id=":intersection_1_2_33_1" index="1" speed="10.88" length="20.74" shape="-13.60,298.40 -5.55,299.35 0.20,302.20 3.65,306.95 3.71,307.29"/>
        <lane id=":intersection_1_2_33_2" index="2" speed="10.36" length="21.49" shape="-13.60,298.40 -6.95,299.35 -2.20,302.20 0.65,306.95 1.17,310.61"/>
    </edge>
    <edge id=":intersection_1_2_45" function="internal">
        <lane id=":intersection_1_2_45_0" index="0" speed="11.11" length="7.68" shape="6.07,306.27 6.65,306.95 8.00,313.60"/>
    </edge>
    <edge id=":intersection_1_2_46" function="internal">
        <lane id=":intersection_1_2_46_0" index="0" speed="10.88" length="6.40" shape="3.71,307.29 4.80,313.60"/>
    </edge>
    <edge id=":intersection_1_2_47" function="internal">
        <lane id=":intersection_1_2_47_0" index="0" speed="10.36" length="3.02" shape="1.17,310.61 1.60,313.60"/>
    </edge>
    <edge id=":intersection_1_3_0" function="internal">
        <lane id=":intersection_1_3_0_0" index="0" speed="6.51" length="9.03" shape="-8.00,613.60 -8.35,611.15 -9.40,609.40 -11.15,608.35 -13.60,608.00"/>
        <lane id=":intersection_1_3_0_1" index="1" speed="7.33" length="11.73" shape="-8.00,613.60 -8.35,609.75 -9.40,607.00 -11.15,605.35 -13.60,604.80"/>
        <lane id=":intersection_1_3_0_2" index="2" speed="8.10" length="14.57" shape="-8.00,613.60 -8.35,608.35 -9.40,604.60 -11.15,602.35 -13.60,601.60"/>
    </edge>
    <edge id=":intersection_1_3_3" function="internal">
        <lane id=":intersection_1_3_3_0" index="0" speed="11.11" length="27.37" shape="-4.80,613.60 -5.30,605.50 -6.40,600.00 -7.50,594.50 -8.00,586.40"/>
        <lane id=":intersection_1_3_3_1" index="1" speed="11.11" length="27.37" shape="-4.80,613.60 -4.80,586.40"/>
        <lane id=":intersection_1_3_3_2" index="2" speed="11.11" length="27.37" shape="-4.80,613.60 -4.30,605.50 -3.20,600.00 -2.10,594.50 -1.60,586.40"/>
    </edge>
    <edge id=":intersection_1_3_6" function="internal">
        <lane id=":intersection_1_3_6_0" index="0" speed="11.11" length="22.18" shape="-1.60,613.60 -0.65,604.15 2.20,597.40 6.27,593.93"/>
        <lane id=":intersection_1_3_6_1" index="1" speed="10.88" length="20.74" shape="-1.60,613.60 -0.65,605.55 2.20,599.80 6.95,596.35 7.29,596.29"/>
        <lane id=":intersection_1_3_6_2" index="2" speed="10.36" length="21.49" shape="-1.60,613.60 -0.65,606.95 2.20,602.20 6.95,599.35 10.61,598.83"/>
    </edge>
    <edge id=":intersection_1_3_36" function="internal">
        <lane id=":intersection_1_3_36_0" index="0" speed="11.11" length="7.68" shape="6.27,593.93 6.95,593.35 13.60,592.00"/>
    </edge>
    <edge id=":intersection_1_3_37" function="internal">
        <lane id=":intersection_1_3_37_0" index="0" speed="10.88" length="6.40" shape="7.29,596.29 13.60,595.20"/>
    </edge>
    <edge id=":intersection_1_3_38" function="internal">
        <lane id=":intersection_1_3_38_0" index="0" speed="10.36" length="3.02" shape="10.61,598.83 13.60,598.40"/>
    </edge>
    <edge id=":intersection_1_3_9" function="internal">
        <lane id=":intersection_1_3_9_0" index="0" speed="6.51" length="9.03" shape="13.60,608.00 11.15,608.35 9.40,609.40 8.35,611.15 8.00,613.60"/>
        <lane id=":intersection_1_3_9_1" index="1" speed="7.33" length="11.73" shape="13.60,608.00 9.75,608.35 7.00,609.40 5.35,611.15 4.80,613.60"/>
        <lane id=":intersection_1_3_9_2" index="2" speed="8.10" length="14.57" shape="13.60,608.00 8.35,608.35 4.60,609.40 2.35,611.15 1.60,613.60"/>
    </edge>
    <edge id=":intersection_1_3_12" function="internal">
        <lane id=":intersection_1_3_12_0" index="0" speed="11.11" length="27.37" shape="13.60,604.80 5.50,605.30 0.00,606.40 -5.50,607.50 -13.60,608.00"/>
        <lane id=":intersection_1_3_12_1" index="1" speed="11.11" length="27.37" shape="13.60,604.80 -13.60,604.80"/>
        <lane id=":intersection_1_3_12_2" index="2" speed="11.11" length="27.37" shape="13.60,604.80 5.50,604.30 -0.00,603.20 -5.50,602.10 -13.60,601.60"/>
    </edge>
    <edge id=":intersection_1_3_15" function="internal">
        <lane id=":intersection_1_3_15_0" index="0" speed="11.11" length="22.18" shape="13.60,601.60 4.15,600.65 -2.60,597.80 -6.07,593.73"/>
        <lane id=":intersection_1_3_15_1" index="1" speed="10.88" length="20.74" shape="13.60,601.60 5.55,600.65 -0.20,597.80 -3.65,593.05 -3.71,592.71"/>
        <lane id=":intersection_1_3_15_2" index="2" speed="10.36" length="21.49" shape="13.60,601.60 6.95,600.65 2.20,597.80 -0.65,593.05 -1.17,589.39"/>
    </edge>
    <edge id=":intersection_1_3_39" function="internal">
        <lane id=":intersection_1_3_39_0" index="0" speed="11.11" length="7.68" shape="-6.07,593.73 -6.65,593.05 -8.00,586.40"/>
    </edge>
    <edge id=":intersection_1_3_40" function="internal">
        <lane id=":intersection_1_3_40_0" index="0" speed="10.88" length="6.40" shape="-3.71,592.71 -4.80,586.40"/>
    </edge>
    <edge id=":intersection_1_3_41" function="internal">
        <lane id=":intersection_1_3_41_0" index="0" speed="10.36" length="3.02" shape="-1.17,589.39 -1.60,586.40"/>
    </edge>
    <edge id=":intersection_1_3_18" function="internal">
        <lane id=":intersection_1_3_18_0" index="0" speed="6.51" length="9.03" shape="8.00,586.40 8.35,588.85 9.40,590.60 11.15,591.65 13.60,592.00"/>
        <lane id=":intersection_1_3_18_1" index="1" speed="7.33" length="11.73" shape="8.00,586.40 8.35,590.25 9.40,593.00 11.15,594.65 13.60,595.20"/>
        <lane id=":intersection_1_3_18_2" index="2" speed="8.10" length="14.57" shape="8.00,586.40 8.35,591.65 9.40,595.40 11.15,597.65 13.60,598.40"/>
    </edge>
    <edge id=":intersection_1_3_21" function="internal">
        <lane id=":intersection_1_3_21_0" index="0" speed="11.11" length="27.37" shape="4.80,586.40 5.30,594.50 6.40,600.00 7.50,605.50 8.00,613.60"/>
        <lane id=":intersection_1_3_21_1" index="1" speed="11.11" length="27.37" shape="4.80,586.40 4.80,613.60"/>
        <lane id=":intersection_1_3_21_2" index="2" speed="11.11" length="27.37" shape="4.80,586.40 4.30,594.50 3.20,600.00 2.10,605.50 1.60,613.60"/>
    </edge>
    <edge id=":intersection_1_3_24" function="internal">
        <lane id=":intersection_1_3_24_0" index="0" speed="11.11" length="22.18" shape="1.60,586.40 0.65,595.85 -2.20,602.60 -6.27,606.07"/>
        <lane id=":intersection_1_3_24_1" index="1" speed="10.88" length="20.74" shape="1.60,586.40 0.65,594.45 -2.20,600.20 -6.95,603.65 -7.29,603.71"/>
        <lane id=":intersection_1_3_24_2" index="2" speed="10.36" length="21.49" shape="1.60,586.40 0.65,593.05 -2.20,597.80 -6.95,600.65 -10.61,601.17"/>
    </edge>
    <edge id=":intersection_1_3_42" function="internal">
        <lane id=":intersection_1_3_42_0" index="0" speed="11.11" length="7.68" shape="-6.27,606.07 -6.95,606.65 -13.60,608.00"/>
    </edge>
    <edge id=":intersection_1_3_43" function="internal">
        <lane id=":intersection_1_3_43_0" index="0" speed="10.88" length="6.40" shape="-7.29,603.71 -13.60,604.80"/>
    </edge>
    <edge id=":intersection_1_3_44" function="internal">
        <lane id=":intersection_1_3_44_0" index="0" speed="10.36" length="3.02" shape="-10.61,601.17 -13.60,601.60"/>
    </edge>
    <edge id=":intersection_1_3_27" function="internal">
        <lane id=":intersection_1_3_27_0" index="0" speed="6.51" length="9.03" shape="-13.60,592.00 -11.15,591.65 -9.40,590.60 -8.35,588.85 -8.00,586.40"/>
        <lane id=":intersection_1_3_27_1" index="1" speed="7.33" length="11.73" shape="-13.60,592.00 -9.75,591.65 -7.00,590.60 -5.35,588.85 -4.80,586.40"/>
        <lane id=":intersection_1_3_27_2" index="2" speed="8.10" length="14.57" shape="-13.60,592.00 -8.35,591.65 -4.60,590.60 -2.35,588.85 -1.60,586.40"/>
    </edge>
    <edge id=":intersection_1_3_30" function="internal">
        <lane id=":intersection_1_3_30_0" index="0" speed="11.11" length="27.37" shape="-13.60,595.20 -5.50,594.70 0.00,593.60 5.50,592.50 13.60,592.00"/>
        <lane id=":intersection_1_3_30_1" index="1" speed="11.11" length="27.37" shape="-13.60,595.20 13.60,595.20"/>
        <lane id=":intersection_1_3_30_2" index="2" speed="11.11" length="27.37" shape="-13.60,595.20 -5.50,595.70 -0.00,596.80 5.50,597.90 13.60,598.40"/>
    </edge>
    <edge id=":intersection_1_3_33" function="internal">
        <lane id=":intersection_1_3_33_0" index="0" speed="11.11" length="22.18" shape="-13.60,598.40 -4.15,599.35 2.60,602.20 6.07,606.27"/>
        <lane id=":intersection_1_3_33_1" index="1" speed="10.88" length="20.74" shape="-13.60,598.40 -5.55,599.35 0.20,602.20 3.65,606.95 3.71,607.29"/>
        <lane id=":intersection_1_3_33_2" index="2" speed="10.36" length="21.49" shape="-13.60,598.40 -6.95,599.35 -2.20,602.20 0.65,606.95 1.17,610.61"/>
    </edge>
    <edge id=":intersection_1_3_45" function="internal">
        <lane id=":intersection_1_3_45_0" index="0" speed="11.11" length="7.68" shape="6.07,606.27 6.65,606.95 8.00,613.60"/>
    </edge>
    <edge id=":intersection_1_3_46" function="internal">
        <lane id=":intersection_1_3_46_0" index="0" speed="10.88" length="6.40" shape="3.71,607.29 4.80,613.60"/>
    </edge>
    <edge id=":intersection_1_3_47" function="internal">
        <lane id=":intersection_1_3_47_0" index="0" speed="10.36" length="3.02" shape="1.17,610.61 1.60,613.60"/>
    </edge>
    <edge id=":intersection_1_4_0" function="internal">
        <lane id=":intersection_1_4_0_0" index="0" speed="6.51" length="9.03" shape="-8.00,913.60 -8.35,911.15 -9.40,909.40 -11.15,908.35 -13.60,908.00"/>
        <lane id=":intersection_1_4_0_1" index="1" speed="7.33" length="11.73" shape="-8.00,913.60 -8.35,909.75 -9.40,907.00 -11.15,905.35 -13.60,904.80"/>
        <lane id=":intersection_1_4_0_2" index="2" speed="8.10" length="14.57" shape="-8.00,913.60 -8.35,908.35 -9.40,904.60 -11.15,902.35 -13.60,901.60"/>
    </edge>
    <edge id=":intersection_1_4_3" function="internal">
        <lane id=":intersection_1_4_3_0" index="0" speed="11.11" length="27.37" shape="-4.80,913.60 -5.30,905.50 -6.40,900.00 -7.50,894.50 -8.00,886.40"/>
        <lane id=":intersection_1_4_3_1" index="1" speed="11.11" length="27.37" shape="-4.80,913.60 -4.80,886.40"/>
        <lane id=":intersection_1_4_3_2" index="2" speed="11.11" length="27.37" shape="-4.80,913.60 -4.30,905.50 -3.20,900.00 -2.10,894.50 -1.60,886.40"/>
    </edge>
    <edge id=":intersection_1_4_6" function="internal">
        <lane id=":intersection_1_4_6_0" index="0" speed="11.11" length="22.18" shape="-1.60,913.60 -0.65,904.15 2.20,897.40 6.27,893.93"/>
        <lane id=":intersection_1_4_6_1" index="1" speed="10.88" length="20.74" shape="-1.60,913.60 -0.65,905.55 2.20,899.80 6.95,896.35 7.29,896.29"/>
        <lane id=":intersection_1_4_6_2" index="2" speed="10.36" length="21.49" shape="-1.60,913.60 -0.65,906.95 2.20,902.20 6.95,899.35 10.61,898.83"/>
    </edge>
    <edge id=":intersection_1_4_36" function="internal">
        <lane id=":intersection_1_4_36_0" index="0" speed="11.11" length="7.68" shape="6.27,893.93 6.95,893.35 13.60,892.00"/>
    </edge>
    <edge id=":intersection_1_4_37" function="internal">
        <lane id=":intersection_1_4_37_0" index="0" speed="10.88" length="6.40" shape="7.29,896.29 13.60,895.20"/>
    </edge>
    <edge id=":intersection_1_4_38" function="internal">
        <lane id=":intersection_1_4_38_0" index="0" speed="10.36" length="3.02" shape="10.61,898.83 13.60,898.40"/>
    </edge>
    <edge id=":intersection_1_4_9" function="internal">
        <lane id=":intersection_1_4_9_0" index="0" speed="6.51" length="9.03" shape="13.60,908.00 11.15,908.35 9.40,909.40 8.35,911.15 8.00,913.60"/>
        <lane id=":intersection_1_4_9_1" index="1" speed="7.33" length="11.73" shape="13.60,908.00 9.75,908.35 7.00,909.40 5.35,911.15 4.80,913.60"/>
        <lane id=":intersection_1_4_9_2" index="2" speed="8.10" length="14.57" shape="13.60,908.00 8.35,908.35 4.60,909.40 2.35,911.15 1.60,913.60"/>
    </edge>
    <edge id=":intersection_1_4_12" function="internal">
        <lane id=":intersection_1_4_12_0" index="0" speed="11.11" length="27.37" shape="13.60,904.80 5.50,905.30 0.00,906.40 -5.50,907.50 -13.60,908.00"/>
        <lane id=":intersection_1_4_12_1" index="1" speed="11.11" length="27.37" shape="13.60,904.80 -13.60,904.80"/>
        <lane id=":intersection_1_4_12_2" index="2" speed="11.11" length="27.37" shape="13.60,904.80 5.50,904.30 -0.00,903.20 -5.50,902.10 -13.60,901.60"/>
    </edge>
    <edge id=":intersection_1_4_15" function="internal">
        <lane id=":intersection_1_4_15_0" index="0" speed="11.11" length="22.18" shape="13.60,901.60 4.15,900.65 -2.60,897.80 -6.07,893.73"/>