<?xml version="1.0" encoding="UTF-8"?>

<!-- generated on 2025-02-27 00:13:53 by Eclipse SUMO netedit Version 1.20.0
-->

<routes xmlns:xsi="http://www.w3.org/2001/XMLSchema-instance" xsi:noNamespaceSchemaLocation="http://sumo.dlr.de/xsd/routes_file.xsd">
    <!-- Routes -->
    <route id="route_0" edges="road_0_1_0 road_1_1_0 road_2_1_3"/>
    <route id="route_1" edges="road_0_1_0 road_1_1_0 road_2_1_0 road_3_1_3"/>
    <route id="route_10" edges="road_0_1_0 road_1_1_0 road_2_1_1 road_2_2_2 road_1_2_1 road_1_3_1 road_1_4_1"/>
    <route id="route_100" edges="road_0_3_0 road_1_3_1 road_1_4_2"/>
    <route id="route_1000" edges="road_4_5_3 road_4_4_2 road_3_4_2 road_2_4_1"/>
    <route id="route_1001" edges="road_4_5_3 road_4_4_3 road_4_3_2 road_3_3_1 road_3_4_1"/>
    <route id="route_1002" edges="road_4_5_3 road_4_4_2 road_3_4_2 road_2_4_2 road_1_4_3 road_1_3_3 road_1_2_2"/>
    <route id="route_1003" edges="road_4_5_3 road_4_4_3 road_4_3_2 road_3_3_2 road_2_3_1 road_2_4_1"/>
    <route id="route_1004" edges="road_4_5_3 road_4_4_3 road_4_3_3 road_4_2_2 road_3_2_2 road_2_2_1 road_2_3_2 road_1_3_3 road_1_2_2"/>
    <route id="route_1005" edges="road_4_5_3 road_4_4_3 road_4_3_3 road_4_2_2 road_3_2_2 road_2_2_1 road_2_3_0 road_3_3_3"/>
    <route id="route_1006" edges="road_4_5_3 road_4_4_3 road_4_3_3 road_4_2_2 road_3_2_2 road_2_2_2 road_1_2_1 road_1_3_1 road_1_4_1"/>
    <route id="route_1007" edges="road_4_5_3 road_4_4_3 road_4_3_3 road_4_2_2 road_3_2_1 road_3_3_2 road_2_3_2 road_1_3_2"/>
    <route id="route_1008" edges="road_4_5_3 road_4_4_3 road_4_3_3 road_4_2_2 road_3_2_1 road_3_3_1 road_3_4_1"/>
    <route id="route_1009" edges="road_4_5_3 road_4_4_3 road_4_3_3 road_4_2_2 road_3_2_2 road_2_2_1 road_2_3_1 road_2_4_1"/>
    <route id="route_101" edges="road_0_3_0 road_1_3_0 road_2_3_0 road_3_3_0 road_4_3_3 road_4_2_3 road_4_1_2 road_3_1_2 road_2_1_2 road_1_1_2"/>
    <route id="route_1010" edges="road_4_5_3 road_4_4_3 road_4_3_2 road_3_3_2 road_2_3_2 road_1_3_3 road_1_2_0 road_2_2_1 road_2_3_0 road_3_3_0 road_4_3_3 road_4_2_3 road_4_1_3"/>
    <route id="route_1011" edges="road_4_5_3 road_4_4_3 road_4_3_2 road_3_3_1 road_3_4_0"/>
    <route id="route_1012" edges="road_4_5_3 road_4_4_2 road_3_4_2 road_2_4_3 road_2_3_2 road_1_3_1 road_1_4_2"/>
    <route id="route_1013" edges="road_4_5_3 road_4_4_3 road_4_3_2 road_3_3_2 road_2_3_1 road_2_4_0 road_3_4_0 road_4_4_0"/>
    <route id="route_1014" edges="road_4_5_3 road_4_4_3 road_4_3_2 road_3_3_2 road_2_3_2 road_1_3_1 road_1_4_1"/>
    <route id="route_1015" edges="road_4_5_3 road_4_4_3 road_4_3_3 road_4_2_3 road_4_1_2 road_3_1_3"/>
    <route id="route_1016" edges="road_4_5_3 road_4_4_3 road_4_3_3 road_4_2_3 road_4_1_2 road_3_1_2 road_2_1_2 road_1_1_1 road_1_2_2"/>
    <route id="route_1017" edges="road_4_5_3 road_4_4_3 road_4_3_3 road_4_2_3 road_4_1_2 road_3_1_1 road_3_2_1 road_3_3_1 road_3_4_1"/>
    <route id="route_1018" edges="road_4_5_3 road_4_4_2 road_3_4_2 road_2_4_2 road_1_4_3 road_1_3_3 road_1_2_3 road_1_1_3"/>
    <route id="route_1019" edges="road_4_5_3 road_4_4_3 road_4_3_3 road_4_2_2 road_3_2_3 road_3_1_2 road_2_1_2 road_1_1_2"/>
    <route id="route_102" edges="road_0_3_0 road_1_3_0 road_2_3_3 road_2_2_2 road_1_2_1 road_1_3_1 road_1_4_1"/>
    <route id="route_1020" edges="road_4_5_3 road_4_4_2 road_3_4_3 road_3_3_0 road_4_3_3 road_4_2_3 road_4_1_3"/>
    <route id="route_1021" edges="road_4_5_3 road_4_4_3 road_4_3_3 road_4_2_2 road_3_2_2 road_2_2_2 road_1_2_2"/>
    <route id="route_1022" edges="road_4_5_3 road_4_4_3 road_4_3_2 road_3_3_2 road_2_3_1 road_2_4_2 road_1_4_3 road_1_3_3 road_1_2_3 road_1_1_3"/>
    <route id="route_1023" edges="road_4_5_3 road_4_4_3 road_4_3_2 road_3_3_3 road_3_2_0 road_4_2_0"/>
    <route id="route_1024" edges="road_4_5_3 road_4_4_3 road_4_3_3 road_4_2_3 road_4_1_2 road_3_1_2 road_2_1_2 road_1_1_2"/>
    <route id="route_1025" edges="road_4_5_3 road_4_4_2 road_3_4_3 road_3_3_3 road_3_2_3 road_3_1_0 road_4_1_0"/>
    <route id="route_1026" edges="road_4_5_3 road_4_4_3 road_4_3_2 road_3_3_2 road_2_3_3 road_2_2_3 road_2_1_3"/>
    <route id="route_1027" edges="road_4_5_3 road_4_4_3 road_4_3_2 road_3_3_1 road_3_4_2 road_2_4_1"/>
    <route id="route_1028" edges="road_4_5_3 road_4_4_2 road_3_4_3 road_3_3_3 road_3_2_2 road_2_2_1 road_2_3_1 road_2_4_0 road_3_4_0 road_4_4_0"/>
    <route id="route_1029" edges="road_4_5_3 road_4_4_3 road_4_3_3 road_4_2_2 road_3_2_2 road_2_2_2 road_1_2_1 road_1_3_0 road_2_3_0 road_3_3_3 road_3_2_3 road_3_1_2 road_2_1_1 road_2_2_1 road_2_3_1 road_2_4_1"/>
    <route id="route_103" edges="road_0_3_0 road_1_3_3 road_1_2_0 road_2_2_3 road_2_1_2 road_1_1_1 road_1_2_1 road_1_3_1 road_1_4_1"/>
    <route id="route_1030" edges="road_4_5_3 road_4_4_3 road_4_3_3 road_4_2_3 road_4_1_2 road_3_1_2 road_2_1_3"/>
    <route id="route_1031" edges="road_4_5_3 road_4_4_2 road_3_4_3 road_3_3_3 road_3_2_3 road_3_1_2 road_2_1_2 road_1_1_2"/>
    <route id="route_1032" edges="road_4_5_3 road_4_4_3 road_4_3_3 road_4_2_3 road_4_1_2 road_3_1_2 road_2_1_2 road_1_1_1 road_1_2_0 road_2_2_0 road_3_2_3 road_3_1_0 road_4_1_0"/>
    <route id="route_1033" edges="road_4_5_3 road_4_4_3 road_4_3_3 road_4_2_2 road_3_2_3 road_3_1_3"/>
    <route id="route_1034" edges="road_4_5_3 road_4_4_2 road_3_4_2 road_2_4_3 road_2_3_3 road_2_2_2 road_1_2_2"/>
    <route id="route_1035" edges="road_4_5_3 road_4_4_3 road_4_3_2 road_3_3_2 road_2_3_2 road_1_3_3 road_1_2_3 road_1_1_2"/>
    <route id="route_1036" edges="road_4_5_3 road_4_4_3 road_4_3_2 road_3_3_2 road_2_3_3 road_2_2_3 road_2_1_0 road_3_1_0 road_4_1_0"/>
    <route id="route_1037" edges="road_4_5_3 road_4_4_3 road_4_3_3 road_4_2_3 road_4_1_2 road_3_1_2 road_2_1_1 road_2_2_0 road_3_2_3 road_3_1_3"/>
    <route id="route_1038" edges="road_4_5_3 road_4_4_2 road_3_4_2 road_2_4_2 road_1_4_3 road_1_3_3 road_1_2_3 road_1_1_2"/>
    <route id="route_1039" edges="road_4_5_3 road_4_4_2 road_3_4_2 road_2_4_3 road_2_3_3 road_2_2_0 road_3_2_0 road_4_2_1 road_4_3_2 road_3_3_2 road_2_3_1 road_2_4_1"/>
    <route id="route_104" edges="road_0_3_0 road_1_3_0 road_2_3_3 road_2_2_3 road_2_1_0 road_3_1_0 road_4_1_0"/>
    <route id="route_1040" edges="road_4_5_3 road_4_4_3 road_4_3_2 road_3_3_2 road_2_3_2 road_1_3_3 road_1_2_3 road_1_1_3"/>
    <route id="route_1041" edges="road_4_5_3 road_4_4_3 road_4_3_3 road_4_2_3 road_4_1_2 road_3_1_2 road_2_1_1 road_2_2_2 road_1_2_2"/>
    <route id="route_1042" edges="road_4_5_3 road_4_4_3 road_4_3_2 road_3_3_2 road_2_3_3 road_2_2_2 road_1_2_1 road_1_3_2"/>
    <route id="route_1043" edges="road_4_5_3 road_4_4_2 road_3_4_2 road_2_4_3 road_2_3_0 road_3_3_3 road_3_2_2 road_2_2_1 road_2_3_1 road_2_4_1"/>
    <route id="route_1044" edges="road_4_5_3 road_4_4_3 road_4_3_2 road_3_3_1 road_3_4_2 road_2_4_3 road_2_3_0 road_3_3_3 road_3_2_3 road_3_1_3"/>
    <route id="route_1045" edges="road_4_5_3 road_4_4_3 road_4_3_3 road_4_2_2 road_3_2_1 road_3_3_1 road_3_4_0"/>
    <route id="route_1046" edges="road_4_5_3 road_4_4_3 road_4_3_3 road_4_2_2 road_3_2_2 road_2_2_1 road_2_3_2 road_1_3_1 road_1_4_1"/>
    <route id="route_1047" edges="road_4_5_3 road_4_4_2 road_3_4_3 road_3_3_3 road_3_2_0 road_4_2_3 road_4_1_3"/>
    <route id="route_1048" edges="road_4_5_3 road_4_4_3 road_4_3_2 road_3_3_2 road_2_3_3 road_2_2_2 road_1_2_1 road_1_3_0"/>
    <route id="route_1049" edges="road_4_5_3 road_4_4_3 road_4_3_2 road_3_3_1 road_3_4_0 road_4_4_1"/>
    <route id="route_105" edges="road_0_3_0 road_1_3_3 road_1_2_0 road_2_2_0 road_3_2_0 road_4_2_0"/>
    <route id="route_1050" edges="road_4_5_3 road_4_4_3 road_4_3_2 road_3_3_3 road_3_2_3 road_3_1_0 road_4_1_0"/>
    <route id="route_1051" edges="road_4_5_3 road_4_4_2 road_3_4_2 road_2_4_3 road_2_3_3 road_2_2_3 road_2_1_3"/>
    <route id="route_1052" edges="road_4_5_3 road_4_4_2 road_3_4_3 road_3_3_2 road_2_3_3 road_2_2_2 road_1_2_3 road_1_1_3"/>
    <route id="route_1053" edges="road_4_5_3 road_4_4_3 road_4_3_3 road_4_2_2 road_3_2_1 road_3_3_1 road_3_4_2 road_2_4_1"/>
    <route id="route_1054" edges="road_4_5_3 road_4_4_3 road_4_3_2 road_3_3_2 road_2_3_3 road_2_2_0 road_3_2_3 road_3_1_3"/>
    <route id="route_1055" edges="road_4_5_3 road_4_4_3 road_4_3_2 road_3_3_2 road_2_3_1 road_2_4_0 road_3_4_0"/>
    <route id="route_1056" edges="road_4_5_3 road_4_4_3 road_4_3_3 road_4_2_3 road_4_1_2 road_3_1_1 road_3_2_1 road_3_3_2 road_2_3_2 road_1_3_2"/>
    <route id="route_1057" edges="road_4_5_3 road_4_4_3 road_4_3_2 road_3_3_2 road_2_3_3 road_2_2_2 road_1_2_1 road_1_3_1 road_1_4_0 road_2_4_0 road_3_4_0 road_4_4_0"/>
    <route id="route_1058" edges="road_4_5_3 road_4_4_3 road_4_3_3 road_4_2_3 road_4_1_2 road_3_1_1 road_3_2_1 road_3_3_2 road_2_3_2 road_1_3_1 road_1_4_0 road_2_4_0 road_3_4_0 road_4_4_1"/>
    <route id="route_1059" edges="road_4_5_3 road_4_4_3 road_4_3_3 road_4_2_2 road_3_2_2 road_2_2_3 road_2_1_2 road_1_1_2"/>
    <route id="route_106" edges="road_0_3_0 road_1_3_0 road_2_3_0 road_3_3_0 road_4_3_3 road_4_2_2 road_3_2_1 road_3_3_1 road_3_4_1"/>
    <route id="route_1060" edges="road_4_5_3 road_4_4_2 road_3_4_2 road_2_4_3 road_2_3_3 road_2_2_0 road_3_2_3 road_3_1_3"/>
    <route id="route_1061" edges="road_4_5_3 road_4_4_3 road_4_3_2 road_3_3_2 road_2_3_2 road_1_3_1 road_1_4_2"/>
    <route id="route_1062" edges="road_4_5_3 road_4_4_2 road_3_4_3 road_3_3_3 road_3_2_3 road_3_1_2 road_2_1_2 road_1_1_1 road_1_2_1 road_1_3_1 road_1_4_1"/>
    <route id="route_1063" edges="road_4_5_3 road_4_4_2 road_3_4_3 road_3_3_3 road_3_2_2 road_2_2_2 road_1_2_2"/>
    <route id="route_1064" edges="road_4_5_3 road_4_4_3 road_4_3_2 road_3_3_2 road_2_3_2 road_1_3_3 road_1_2_2"/>
    <route id="route_1065" edges="road_4_5_3 road_4_4_2 road_3_4_2 road_2_4_3 road_2_3_2 road_1_3_1 road_1_4_1"/>
    <route id="route_1066" edges="road_4_5_3 road_4_4_3 road_4_3_3 road_4_2_3 road_4_1_2 road_3_1_2 road_2_1_1 road_2_2_1 road_2_3_0 road_3_3_0 road_4_3_1 road_4_4_1"/>
    <route id="route_1067" edges="road_4_5_3 road_4_4_2 road_3_4_3 road_3_3_0 road_4_3_0"/>
    <route id="route_1068" edges="road_4_5_3 road_4_4_2 road_3_4_2 road_2_4_3 road_2_3_3 road_2_2_2 road_1_2_1 road_1_3_1 road_1_4_0"/>
    <route id="route_1069" edges="road_4_5_3 road_4_4_3 road_4_3_2 road_3_3_3 road_3_2_2 road_2_2_2 road_1_2_1 road_1_3_0 road_2_3_3 road_2_2_3 road_2_1_2 road_1_1_2"/>
    <route id="route_107" edges="road_0_3_0 road_1_3_0 road_2_3_0 road_3_3_3 road_3_2_2 road_2_2_2 road_1_2_2"/>
    <route id="route_1070" edges="road_4_5_3 road_4_4_3 road_4_3_3 road_4_2_2 road_3_2_2 road_2_2_3 road_2_1_2 road_1_1_1 road_1_2_2"/>
    <route id="route_1071" edges="road_4_5_3 road_4_4_3 road_4_3_3 road_4_2_3 road_4_1_2 road_3_1_1 road_3_2_2 road_2_2_2 road_1_2_2"/>
    <route id="route_1072" edges="road_4_5_3 road_4_4_3 road_4_3_2 road_3_3_3 road_3_2_2 road_2_2_2 road_1_2_3 road_1_1_2"/>
    <route id="route_1073" edges="road_4_5_3 road_4_4_3 road_4_3_2 road_3_3_2 road_2_3_1 road_2_4_0 road_3_4_3 road_3_3_3 road_3_2_3 road_3_1_3"/>
    <route id="route_1074" edges="road_4_5_3 road_4_4_3 road_4_3_3 road_4_2_2 road_3_2_2 road_2_2_2 road_1_2_1 road_1_3_1 road_1_4_0 road_2_4_1"/>
    <route id="route_1075" edges="road_4_5_3 road_4_4_3 road_4_3_2 road_3_3_2 road_2_3_1 road_2_4_0 road_3_4_3"/>
    <route id="route_1076" edges="road_4_5_3 road_4_4_3 road_4_3_2 road_3_3_2 road_2_3_3 road_2_2_2 road_1_2_2"/>
    <route id="route_1077" edges="road_4_5_3 road_4_4_3 road_4_3_3 road_4_2_2 road_3_2_2 road_2_2_1 road_2_3_2 road_1_3_1 road_1_4_0 road_2_4_0 road_3_4_0"/>
    <route id="route_1078" edges="road_4_5_3 road_4_4_3 road_4_3_2 road_3_3_2 road_2_3_1 road_2_4_0 road_3_4_3 road_3_3_3 road_3_2_2 road_2_2_2 road_1_2_1 road_1_3_1 road_1_4_0"/>
    <route id="route_1079" edges="road_4_5_3 road_4_4_3 road_4_3_2 road_3_3_2 road_2_3_2 road_1_3_1 road_1_4_0 road_2_4_0 road_3_4_0 road_4_4_0"/>
    <route id="route_108" edges="road_0_3_0 road_1_3_0 road_2_3_1 road_2_4_2 road_1_4_1"/>
    <route id="route_1080" edges="road_4_5_3 road_4_4_3 road_4_3_3 road_4_2_3 road_4_1_2 road_3_1_2 road_2_1_1 road_2_2_0 road_3_2_1 road_3_3_1 road_3_4_0 road_4_4_0"/>
    <route id="route_1081" edges="road_4_5_3 road_4_4_3 road_4_3_3 road_4_2_3 road_4_1_2 road_3_1_2 road_2_1_2 road_1_1_1 road_1_2_1 road_1_3_1 road_1_4_2"/>
    <route id="route_1082" edges="road_4_5_3 road_4_4_2 road_3_4_2 road_2_4_3 road_2_3_3 road_2_2_2 road_1_2_3 road_1_1_3"/>
    <route id="route_1083" edges="road_4_5_3 road_4_4_3 road_4_3_3 road_4_2_3 road_4_1_2 road_3_1_2 road_2_1_1 road_2_2_0 road_3_2_0 road_4_2_1 road_4_3_1 road_4_4_1"/>
    <route id="route_1084" edges="road_4_5_3 road_4_4_3 road_4_3_2 road_3_3_3 road_3_2_0 road_4_2_3 road_4_1_3"/>
    <route id="route_1085" edges="road_4_5_3 road_4_4_3 road_4_3_3 road_4_2_3 road_4_1_2 road_3_1_2 road_2_1_1 road_2_2_1 road_2_3_2 road_1_3_2"/>
    <route id="route_1086" edges="road_4_5_3 road_4_4_3 road_4_3_2 road_3_3_2 road_2_3_1 road_2_4_0 road_3_4_3 road_3_3_3 road_3_2_2 road_2_2_2 road_1_2_2"/>
    <route id="route_1087" edges="road_4_5_3 road_4_4_3 road_4_3_2 road_3_3_2 road_2_3_2 road_1_3_1 road_1_4_0 road_2_4_3 road_2_3_3 road_2_2_3 road_2_1_3"/>
    <route id="route_1088" edges="road_4_5_3 road_4_4_2 road_3_4_3 road_3_3_2 road_2_3_2 road_1_3_2"/>
    <route id="route_1089" edges="road_4_5_3 road_4_4_3 road_4_3_3 road_4_2_2 road_3_2_2 road_2_2_1 road_2_3_1 road_2_4_0 road_3_4_3 road_3_3_3 road_3_2_0 road_4_2_0"/>
    <route id="route_109" edges="road_0_3_0 road_1_3_0 road_2_3_3 road_2_2_2 road_1_2_1 road_1_3_2"/>
    <route id="route_1090" edges="road_4_5_3 road_4_4_3 road_4_3_2 road_3_3_3 road_3_2_0 road_4_2_3 road_4_1_2 road_3_1_1 road_3_2_1 road_3_3_0 road_4_3_0"/>
    <route id="route_1091" edges="road_4_5_3 road_4_4_3 road_4_3_2 road_3_3_1 road_3_4_2 road_2_4_2 road_1_4_1"/>
    <route id="route_1092" edges="road_3_5_3 road_3_4_0 road_4_4_3 road_4_3_2 road_3_3_1"/>
    <route id="route_1093" edges="road_3_5_3 road_3_4_3 road_3_3_3 road_3_2_3 road_3_1_0 road_4_1_0"/>
    <route id="route_1094" edges="road_3_5_3 road_3_4_3 road_3_3_3 road_3_2_3 road_3_1_3"/>
    <route id="route_1095" edges="road_3_5_3 road_3_4_2 road_2_4_2 road_1_4_2"/>
    <route id="route_1096" edges="road_3_5_3 road_3_4_2 road_2_4_3 road_2_3_2 road_1_3_2"/>
    <route id="route_1097" edges="road_3_5_3 road_3_4_2 road_2_4_2 road_1_4_1"/>
    <route id="route_1098" edges="road_3_5_3 road_3_4_0 road_4_4_0"/>
    <route id="route_1099" edges="road_3_5_3 road_3_4_3 road_3_3_2 road_2_3_2 road_1_3_2"/>
    <route id="route_11" edges="road_0_1_0 road_1_1_0 road_2_1_1 road_2_2_2 road_1_2_2"/>
    <route id="route_110" edges="road_0_3_0 road_1_3_0 road_2_3_3 road_2_2_0 road_3_2_0 road_4_2_3 road_4_1_2 road_3_1_2 road_2_1_3"/>
    <route id="route_1100" edges="road_3_5_3 road_3_4_0 road_4_4_3 road_4_3_3 road_4_2_3 road_4_1_3"/>
    <route id="route_1101" edges="road_3_5_3 road_3_4_2 road_2_4_1"/>
    <route id="route_1102" edges="road_3_5_3 road_3_4_3 road_3_3_3 road_3_2_2 road_2_2_1 road_2_3_1 road_2_4_1"/>
    <route id="route_1103" edges="road_3_5_3 road_3_4_3 road_3_3_2 road_2_3_3 road_2_2_3 road_2_1_3"/>
    <route id="route_1104" edges="road_3_5_3 road_3_4_3 road_3_3_0 road_4_3_3 road_4_2_3 road_4_1_0"/>
    <route id="route_1105" edges="road_3_5_3 road_3_4_3 road_3_3_2 road_2_3_2 road_1_3_1 road_1_4_1"/>
    <route id="route_1106" edges="road_3_5_3 road_3_4_3 road_3_3_0 road_4_3_3 road_4_2_3 road_4_1_2 road_3_1_1 road_3_2_2 road_2_2_2 road_1_2_2"/>
    <route id="route_1107" edges="road_3_5_3 road_3_4_3 road_3_3_2 road_2_3_2 road_1_3_1 road_1_4_0 road_2_4_0"/>
    <route id="route_1108" edges="road_3_5_3 road_3_4_3 road_3_3_2 road_2_3_1 road_2_4_1"/>
    <route id="route_1109" edges="road_3_5_3 road_3_4_2 road_2_4_3 road_2_3_3 road_2_2_3 road_2_1_3"/>
    <route id="route_111" edges="road_0_3_0 road_1_3_0 road_2_3_0 road_3_3_0 road_4_3_3 road_4_2_2 road_3_2_1 road_3_3_1 road_3_4_0 road_4_4_0"/>
    <route id="route_1110" edges="road_3_5_3 road_3_4_3 road_3_3_3 road_3_2_0 road_4_2_0"/>
    <route id="route_1111" edges="road_3_5_3 road_3_4_3 road_3_3_3 road_3_2_3 road_3_1_2 road_2_1_1 road_2_2_0"/>
    <route id="route_1112" edges="road_3_5_3 road_3_4_3 road_3_3_3 road_3_2_2 road_2_2_1 road_2_3_2 road_1_3_2"/>
    <route id="route_1113" edges="road_3_5_3 road_3_4_0 road_4_4_3 road_4_3_2 road_3_3_2 road_2_3_1 road_2_4_0"/>
    <route id="route_1114" edges="road_3_5_3 road_3_4_2 road_2_4_3 road_2_3_2 road_1_3_1 road_1_4_1"/>
    <route id="route_1115" edges="road_3_5_3 road_3_4_3 road_3_3_3 road_3_2_3 road_3_1_2 road_2_1_2 road_1_1_1 road_1_2_0 road_2_2_0"/>
    <route id="route_1116" edges="road_3_5_3 road_3_4_3 road_3_3_3 road_3_2_3 road_3_1_2 road_2_1_2 road_1_1_2"/>
    <route id="route_1117" edges="road_3_5_3 road_3_4_3 road_3_3_3 road_3_2_3 road_3_1_0 road_4_1_3"/>
    <route id="route_1118" edges="road_3_5_3 road_3_4_2 road_2_4_2 road_1_4_3 road_1_3_3 road_1_2_2"/>
    <route id="route_1119" edges="road_3_5_3 road_3_4_3 road_3_3_0 road_4_3_0"/>
    <route id="route_112" edges="road_0_3_0 road_1_3_0 road_2_3_3 road_2_2_2 road_1_2_1"/>
    <route id="route_1120" edges="road_3_5_3 road_3_4_3 road_3_3_3 road_3_2_2 road_2_2_2 road_1_2_2"/>
    <route id="route_1121" edges="road_3_5_3 road_3_4_3 road_3_3_0 road_4_3_3 road_4_2_0"/>
    <route id="route_1122" edges="road_3_5_3 road_3_4_3 road_3_3_2 road_2_3_1 road_2_4_0"/>
    <route id="route_1123" edges="road_3_5_3 road_3_4_2 road_2_4_2 road_1_4_3 road_1_3_3 road_1_2_3 road_1_1_2"/>
    <route id="route_1124" edges="road_3_5_3 road_3_4_3 road_3_3_3 road_3_2_2 road_2_2_2 road_1_2_1 road_1_3_1 road_1_4_1"/>
    <route id="route_1125" edges="road_3_5_3 road_3_4_3 road_3_3_0 road_4_3_1 road_4_4_1"/>
    <route id="route_1126" edges="road_3_5_3 road_3_4_3 road_3_3_3 road_3_2_3 road_3_1_2 road_2_1_1 road_2_2_0 road_3_2_0 road_4_2_0"/>
    <route id="route_1127" edges="road_3_5_3 road_3_4_3 road_3_3_2 road_2_3_1 road_2_4_0 road_3_4_0 road_4_4_1"/>
    <route id="route_1128" edges="road_3_5_3 road_3_4_3 road_3_3_2 road_2_3_3 road_2_2_2 road_1_2_2"/>
    <route id="route_1129" edges="road_3_5_3 road_3_4_3 road_3_3_3 road_3_2_0 road_4_2_3 road_4_1_3"/>
    <route id="route_113" edges="road_0_3_0 road_1_3_0 road_2_3_0 road_3_3_3 road_3_2_2 road_2_2_2 road_1_2_1 road_1_3_1 road_1_4_1"/>
    <route id="route_1130" edges="road_3_5_3 road_3_4_3 road_3_3_3 road_3_2_3 road_3_1_2 road_2_1_1 road_2_2_1 road_2_3_0 road_3_3_0 road_4_3_0"/>
    <route id="route_1131" edges="road_3_5_3 road_3_4_3 road_3_3_2 road_2_3_2 road_1_3_1 road_1_4_0 road_2_4_1"/>
    <route id="route_1132" edges="road_3_5_3 road_3_4_0 road_4_4_3 road_4_3_3 road_4_2_3 road_4_1_0"/>
    <route id="route_1133" edges="road_3_5_3 road_3_4_3 road_3_3_2 road_2_3_3 road_2_2_3 road_2_1_2 road_1_1_1 road_1_2_0 road_2_2_0 road_3_2_0 road_4_2_3 road_4_1_3"/>
    <route id="route_1134" edges="road_3_5_3 road_3_4_3 road_3_3_0 road_4_3_3 road_4_2_3 road_4_1_3"/>
    <route id="route_1135" edges="road_3_5_3 road_3_4_3 road_3_3_3 road_3_2_0 road_4_2_1 road_4_3_1 road_4_4_1"/>
    <route id="route_1136" edges="road_3_5_3 road_3_4_0 road_4_4_1"/>
    <route id="route_1137" edges="road_3_5_3 road_3_4_3 road_3_3_3 road_3_2_2 road_2_2_2 road_1_2_1 road_1_3_1 road_1_4_0 road_2_4_0 road_3_4_0 road_4_4_3 road_4_3_3 road_4_2_3 road_4_1_3"/>
    <route id="route_1138" edges="road_3_5_3 road_3_4_3 road_3_3_3 road_3_2_2 road_2_2_1 road_2_3_0 road_3_3_0 road_4_3_0"/>
    <route id="route_1139" edges="road_3_5_3 road_3_4_3 road_3_3_3 road_3_2_3 road_3_1_2 road_2_1_1 road_2_2_1 road_2_3_0 road_3_3_0 road_4_3_3 road_4_2_3 road_4_1_2 road_3_1_1 road_3_2_1"/>
    <route id="route_114" edges="road_0_3_0 road_1_3_0 road_2_3_0 road_3_3_3 road_3_2_3 road_3_1_0 road_4_1_3"/>
    <route id="route_1140" edges="road_3_5_3 road_3_4_2 road_2_4_2 road_1_4_3 road_1_3_2"/>
    <route id="route_1141" edges="road_3_5_3 road_3_4_3 road_3_3_3 road_3_2_3 road_3_1_2 road_2_1_3"/>
    <route id="route_1142" edges="road_3_5_3 road_3_4_3 road_3_3_0 road_4_3_1 road_4_4_0"/>
    <route id="route_1143" edges="road_3_5_3 road_3_4_3 road_3_3_2 road_2_3_1 road_2_4_2 road_1_4_2"/>
    <route id="route_1144" edges="road_3_5_3 road_3_4_3 road_3_3_3 road_3_2_3 road_3_1_2 road_2_1_2 road_1_1_1 road_1_2_1 road_1_3_1 road_1_4_1"/>
    <route id="route_1145" edges="road_3_5_3 road_3_4_3 road_3_3_3 road_3_2_2 road_2_2_1 road_2_3_1 road_2_4_0 road_3_4_0 road_4_4_3 road_4_3_3 road_4_2_3 road_4_1_3"/>
    <route id="route_1146" edges="road_3_5_3 road_3_4_3 road_3_3_0 road_4_3_3 road_4_2_2 road_3_2_2 road_2_2_3 road_2_1_2 road_1_1_2"/>
    <route id="route_1147" edges="road_3_5_3 road_3_4_0 road_4_4_3 road_4_3_2 road_3_3_1 road_3_4_1"/>
    <route id="route_1148" edges="road_3_5_3 road_3_4_3 road_3_3_3 road_3_2_0 road_4_2_1 road_4_3_0"/>
    <route id="route_1149" edges="road_3_5_3 road_3_4_3 road_3_3_3 road_3_2_2 road_2_2_2 road_1_2_1 road_1_3_0 road_2_3_3"/>
    <route id="route_115" edges="road_0_3_0 road_1_3_0 road_2_3_1 road_2_4_0 road_3_4_0 road_4_4_3 road_4_3_3 road_4_2_0"/>
    <route id="route_1150" edges="road_3_5_3 road_3_4_3 road_3_3_2 road_2_3_2 road_1_3_1 road_1_4_0 road_2_4_0 road_3_4_0 road_4_4_0"/>
    <route id="route_1151" edges="road_3_5_3 road_3_4_3 road_3_3_3 road_3_2_2 road_2_2_2 road_1_2_3 road_1_1_2"/>
    <route id="route_1152" edges="road_3_5_3 road_3_4_3 road_3_3_2 road_2_3_2 road_1_3_1 road_1_4_2"/>
    <route id="route_1153" edges="road_3_5_3 road_3_4_3 road_3_3_3 road_3_2_3 road_3_1_2 road_2_1_1 road_2_2_1 road_2_3_1 road_2_4_1"/>
    <route id="route_1154" edges="road_3_5_3 road_3_4_3 road_3_3_3 road_3_2_3 road_3_1_2 road_2_1_2 road_1_1_3"/>
    <route id="route_1155" edges="road_3_5_3 road_3_4_2 road_2_4_2 road_1_4_3 road_1_3_0 road_2_3_3 road_2_2_2 road_1_2_1 road_1_3_1 road_1_4_0 road_2_4_3 road_2_3_0 road_3_3_0 road_4_3_3 road_4_2_3 road_4_1_3"/>
    <route id="route_1156" edges="road_3_5_3 road_3_4_3 road_3_3_3 road_3_2_2 road_2_2_3 road_2_1_3"/>
    <route id="route_1157" edges="road_3_5_3 road_3_4_0 road_4_4_3 road_4_3_2 road_3_3_3 road_3_2_2 road_2_2_2 road_1_2_2"/>
    <route id="route_1158" edges="road_3_5_3 road_3_4_2 road_2_4_2 road_1_4_3 road_1_3_3 road_1_2_3 road_1_1_3"/>
    <route id="route_1159" edges="road_3_5_3 road_3_4_2 road_2_4_3 road_2_3_3 road_2_2_2 road_1_2_2"/>
    <route id="route_116" edges="road_0_3_0 road_1_3_1 road_1_4_0 road_2_4_3 road_2_3_2"/>
    <route id="route_1160" edges="road_3_5_3 road_3_4_3 road_3_3_3 road_3_2_3 road_3_1_0 road_4_1_1 road_4_2_0"/>
    <route id="route_1161" edges="road_3_5_3 road_3_4_3 road_3_3_2 road_2_3_2 road_1_3_3 road_1_2_3 road_1_1_3"/>
    <route id="route_1162" edges="road_3_5_3 road_3_4_3 road_3_3_2 road_2_3_2 road_1_3_3 road_1_2_0 road_2_2_0 road_3_2_0 road_4_2_1 road_4_3_1 road_4_4_1"/>
    <route id="route_1163" edges="road_3_5_3 road_3_4_3 road_3_3_3 road_3_2_3 road_3_1_2 road_2_1_1 road_2_2_1 road_2_3_1 road_2_4_0"/>
    <route id="route_1164" edges="road_3_5_3 road_3_4_0 road_4_4_3 road_4_3_3 road_4_2_2 road_3_2_2 road_2_2_3 road_2_1_2 road_1_1_2"/>
    <route id="route_1165" edges="road_3_5_3 road_3_4_3 road_3_3_3 road_3_2_3 road_3_1_2 road_2_1_2 road_1_1_1 road_1_2_1 road_1_3_1 road_1_4_0 road_2_4_0"/>
    <route id="route_1166" edges="road_3_5_3 road_3_4_3 road_3_3_0 road_4_3_3 road_4_2_3 road_4_1_2 road_3_1_2 road_2_1_1 road_2_2_0 road_3_2_0"/>
    <route id="route_1167" edges="road_3_5_3 road_3_4_3 road_3_3_2 road_2_3_3 road_2_2_3 road_2_1_2 road_1_1_1 road_1_2_1 road_1_3_1 road_1_4_1"/>
    <route id="route_1168" edges="road_3_5_3 road_3_4_2 road_2_4_3 road_2_3_0 road_3_3_3 road_3_2_3 road_3_1_3"/>
    <route id="route_1169" edges="road_3_5_3 road_3_4_3 road_3_3_2 road_2_3_2 road_1_3_1 road_1_4_0 road_2_4_0 road_3_4_1"/>
    <route id="route_117" edges="road_0_3_0 road_1_3_0 road_2_3_0 road_3_3_0 road_4_3_3 road_4_2_2 road_3_2_2 road_2_2_2 road_1_2_3 road_1_1_3"/>
    <route id="route_1170" edges="road_3_5_3 road_3_4_2 road_2_4_3 road_2_3_3 road_2_2_3 road_2_1_2 road_1_1_1 road_1_2_1 road_1_3_1 road_1_4_0 road_2_4_0 road_3_4_3 road_3_3_3 road_3_2_3 road_3_1_3"/>
    <route id="route_1171" edges="road_3_5_3 road_3_4_3 road_3_3_3 road_3_2_3 road_3_1_2 road_2_1_1 road_2_2_2 road_1_2_3 road_1_1_3"/>
    <route id="route_1172" edges="road_3_5_3 road_3_4_3 road_3_3_3 road_3_2_2 road_2_2_2 road_1_2_3 road_1_1_3"/>
    <route id="route_1173" edges="road_3_5_3 road_3_4_3 road_3_3_3 road_3_2_2 road_2_2_1 road_2_3_1 road_2_4_2 road_1_4_2"/>
    <route id="route_1174" edges="road_3_5_3 road_3_4_3 road_3_3_2 road_2_3_3 road_2_2_3 road_2_1_0 road_3_1_0 road_4_1_3"/>
    <route id="route_1175" edges="road_3_5_3 road_3_4_3 road_3_3_2 road_2_3_2 road_1_3_3 road_1_2_2"/>
    <route id="route_1176" edges="road_3_5_3 road_3_4_3 road_3_3_3 road_3_2_3 road_3_1_2 road_2_1_2 road_1_1_1 road_1_2_2"/>
    <route id="route_1177" edges="road_3_5_3 road_3_4_3 road_3_3_3 road_3_2_3 road_3_1_2 road_2_1_2 road_1_1_1 road_1_2_1 road_1_3_1 road_1_4_0 road_2_4_0 road_3_4_0 road_4_4_3 road_4_3_2 road_3_3_2 road_2_3_2 road_1_3_2"/>
    <route id="route_1178" edges="road_3_5_3 road_3_4_0 road_4_4_3 road_4_3_3 road_4_2_3 road_4_1_2 road_3_1_2 road_2_1_2 road_1_1_1 road_1_2_1 road_1_3_1 road_1_4_0 road_2_4_0"/>
    <route id="route_1179" edges="road_3_5_3 road_3_4_3 road_3_3_2 road_2_3_2 road_1_3_1 road_1_4_0 road_2_4_3 road_2_3_3 road_2_2_3 road_2_1_3"/>
    <route id="route_118" edges="road_0_3_0 road_1_3_1 road_1_4_0 road_2_4_3 road_2_3_0 road_3_3_0 road_4_3_3 road_4_2_3 road_4_1_0"/>
    <route id="route_1180" edges="road_3_5_3 road_3_4_3 road_3_3_3 road_3_2_2 road_2_2_2 road_1_2_1 road_1_3_1 road_1_4_2"/>
    <route id="route_1181" edges="road_3_5_3 road_3_4_3 road_3_3_2 road_2_3_1 road_2_4_0 road_3_4_0 road_4_4_0"/>
    <route id="route_1182" edges="road_3_5_3 road_3_4_3 road_3_3_3 road_3_2_2 road_2_2_1 road_2_3_0 road_3_3_0 road_4_3_3 road_4_2_2"/>
    <route id="route_1183" edges="road_3_5_3 road_3_4_2 road_2_4_3 road_2_3_3 road_2_2_0 road_3_2_0 road_4_2_3 road_4_1_3"/>
    <route id="route_1184" edges="road_3_5_3 road_3_4_3 road_3_3_3 road_3_2_2 road_2_2_3 road_2_1_2 road_1_1_3"/>
    <route id="route_1185" edges="road_3_5_3 road_3_4_0 road_4_4_3 road_4_3_3 road_4_2_0"/>
    <route id="route_1186" edges="road_3_5_3 road_3_4_3 road_3_3_3 road_3_2_3 road_3_1_2 road_2_1_1 road_2_2_1 road_2_3_0 road_3_3_0 road_4_3_3 road_4_2_3 road_4_1_3"/>
    <route id="route_1187" edges="road_3_5_3 road_3_4_0 road_4_4_3 road_4_3_3 road_4_2_2 road_3_2_3 road_3_1_2 road_2_1_2 road_1_1_2"/>
    <route id="route_1188" edges="road_3_5_3 road_3_4_3 road_3_3_3 road_3_2_3 road_3_1_2 road_2_1_2 road_1_1_1 road_1_2_0 road_2_2_0 road_3_2_0 road_4_2_3 road_4_1_3"/>
    <route id="route_1189" edges="road_3_5_3 road_3_4_3 road_3_3_2 road_2_3_1 road_2_4_2 road_1_4_3 road_1_3_3 road_1_2_3 road_1_1_2"/>
    <route id="route_119" edges="road_0_3_0 road_1_3_0 road_2_3_0 road_3_3_1 road_3_4_0 road_4_4_1"/>
    <route id="route_1190" edges="road_3_5_3 road_3_4_0 road_4_4_3 road_4_3_3 road_4_2_2 road_3_2_2 road_2_2_1 road_2_3_1 road_2_4_0"/>
    <route id="route_1191" edges="road_3_5_3 road_3_4_3 road_3_3_0 road_4_3_3 road_4_2_3 road_4_1_2 road_3_1_2 road_2_1_2 road_1_1_3"/>
    <route id="route_1192" edges="road_3_5_3 road_3_4_3 road_3_3_3 road_3_2_3 road_3_1_2 road_2_1_2 road_1_1_1 road_1_2_1 road_1_3_0 road_2_3_0 road_3_3_0 road_4_3_0"/>
    <route id="route_1193" edges="road_3_5_3 road_3_4_3 road_3_3_3 road_3_2_3 road_3_1_2 road_2_1_1 road_2_2_1 road_2_3_2 road_1_3_1 road_1_4_0 road_2_4_0 road_3_4_0 road_4_4_0"/>
    <route id="route_1194" edges="road_3_5_3 road_3_4_3 road_3_3_3 road_3_2_2 road_2_2_2 road_1_2_1 road_1_3_0 road_2_3_0 road_3_3_0 road_4_3_3 road_4_2_2"/>
    <route id="route_1195" edges="road_3_5_3 road_3_4_2 road_2_4_3 road_2_3_3 road_2_2_0 road_3_2_3 road_3_1_2 road_2_1_1 road_2_2_1 road_2_3_1 road_2_4_1"/>
    <route id="route_1196" edges="road_3_5_3 road_3_4_3 road_3_3_3 road_3_2_3 road_3_1_2 road_2_1_1 road_2_2_2 road_1_2_2"/>
    <route id="route_1197" edges="road_3_5_3 road_3_4_3 road_3_3_0 road_4_3_3 road_4_2_2 road_3_2_1"/>
    <route id="route_1198" edges="road_3_5_3 road_3_4_3 road_3_3_3 road_3_2_2 road_2_2_2 road_1_2_1 road_1_3_1 road_1_4_0 road_2_4_3 road_2_3_0 road_3_3_1 road_3_4_1"/>
    <route id="route_1199" edges="road_3_5_3 road_3_4_3 road_3_3_3 road_3_2_2 road_2_2_2 road_1_2_1 road_1_3_1 road_1_4_0 road_2_4_3 road_2_3_3 road_2_2_3 road_2_1_2 road_1_1_3"/>
    <route id="route_12" edges="road_0_1_0 road_1_1_0 road_2_1_0 road_3_1_1 road_3_2_1 road_3_3_1 road_3_4_1"/>
    <route id="route_120" edges="road_0_3_0 road_1_3_0 road_2_3_0 road_3_3_3 road_3_2_3 road_3_1_2 road_2_1_1 road_2_2_0 road_3_2_0 road_4_2_0"/>
    <route id="route_1200" edges="road_3_5_3 road_3_4_3 road_3_3_3 road_3_2_2 road_2_2_2 road_1_2_1 road_1_3_0 road_2_3_0 road_3_3_0 road_4_3_0"/>
    <route id="route_1201" edges="road_3_5_3 road_3_4_3 road_3_3_3 road_3_2_3 road_3_1_2 road_2_1_1 road_2_2_1 road_2_3_1 road_2_4_0 road_3_4_0 road_4_4_0"/>
    <route id="route_1202" edges="road_3_5_3 road_3_4_3 road_3_3_3 road_3_2_3 road_3_1_0 road_4_1_1 road_4_2_2 road_3_2_1 road_3_3_2 road_2_3_1 road_2_4_1"/>
    <route id="route_1203" edges="road_3_5_3 road_3_4_2 road_2_4_3 road_2_3_3 road_2_2_3 road_2_1_2 road_1_1_2"/>
    <route id="route_1204" edges="road_3_5_3 road_3_4_3 road_3_3_2 road_2_3_3 road_2_2_3 road_2_1_2 road_1_1_2"/>
    <route id="route_1205" edges="road_3_5_3 road_3_4_3 road_3_3_3 road_3_2_3 road_3_1_0 road_4_1_1 road_4_2_1 road_4_3_1 road_4_4_2 road_3_4_2 road_2_4_2 road_1_4_1"/>
    <route id="route_1206" edges="road_3_5_3 road_3_4_0 road_4_4_3 road_4_3_2 road_3_3_2 road_2_3_3 road_2_2_2 road_1_2_1 road_1_3_0 road_2_3_0 road_3_3_3 road_3_2_2 road_2_2_1 road_2_3_1 road_2_4_1"/>
    <route id="route_1207" edges="road_3_5_3 road_3_4_3 road_3_3_2 road_2_3_1 road_2_4_0 road_3_4_0 road_4_4_3 road_4_3_2"/>
    <route id="route_1208" edges="road_3_5_3 road_3_4_3 road_3_3_3 road_3_2_2 road_2_2_1 road_2_3_1 road_2_4_0 road_3_4_0 road_4_4_0"/>