<?xml version="1.0" encoding="UTF-8"?>

<!-- generated on 11/23/19 19:40:56 by Eclipse SUMO netedit Version 1.3.1
<configuration xmlns:xsi="http://www.w3.org/2001/XMLSchema-instance" xsi:noNamespaceSchemaLocation="http://sumo.dlr.de/xsd/netconvertConfiguration.xsd">
    <input>
        <sumo-net-file value="C:\Users\Pavel\Desktop\RL-on-SUMO\networks\double\Israel_zipping_yellow_light\xmls\network.net.xml"/>
    </input>
    <output>
        <output-file value="C:\Users\Pavel\Desktop\RL-on-SUMO\networks\double\Israel_zipping_yellow_light\xmls\network.net.xml"/>
    </output>
    <processing>
        <geometry.max-grade.fix value="false"/>
        <offset.disable-normalization value="true"/>
        <opposites.guess.fix-lengths value="true"/>
        <lefthand value="false"/>
    </processing>
    <junctions>
        <no-turnarounds value="true"/>
        <junctions.corner-detail value="5"/>
        <junctions.limit-turn-speed value="5.5"/>
        <rectangular-lane-cut value="false"/>
    </junctions>
    <pedestrian>
        <walkingareas value="false"/>
    </pedestrian>
</configuration>
-->

<net version="1.3" junctionCornerDetail="5" limitTurnSpeed="5.50" xmlns:xsi="http://www.w3.org/2001/XMLSchema-instance" xsi:noNamespaceSchemaLocation="http://sumo.dlr.de/xsd/net_file.xsd">

    <location netOffset="0.00,0.00" convBoundary="-150.00,-60.00,320.00,160.00" origBoundary="-10000000000.00,-10000000000.00,10000000000.00,10000000000.00" projParameter="!"/>

    <edge id=":ABS_0" function="internal">
        <lane id=":ABS_0_0" index="0" speed="13.89" length="8.20" shape="-54.00,42.00 -51.54,41.50 -50.00,40.40 -48.46,39.30 -46.00,38.80"/>
        <lane id=":ABS_0_1" index="1" speed="13.89" length="8.20" shape="-54.00,42.00 -46.00,42.00"/>
        <lane id=":ABS_0_2" index="2" speed="13.89" length="8.20" shape="-54.00,45.20 -46.00,45.20"/>
        <lane id=":ABS_0_3" index="3" speed="13.89" length="8.20" shape="-54.00,48.40 -46.00,48.40"/>
    </edge>
    <edge id=":B_0" function="internal">
        <lane id=":B_0_0" index="0" speed="6.51" length="9.03" shape="8.80,66.80 8.45,64.35 7.40,62.60 5.65,61.55 3.20,61.20"/>
    </edge>
    <edge id=":B_1" function="internal">
        <lane id=":B_1_0" index="0" speed="13.89" length="33.60" shape="12.00,66.80 12.00,33.20"/>
        <lane id=":B_1_1" index="1" speed="13.89" length="33.60" shape="15.20,66.80 15.20,33.20"/>
    </edge>
    <edge id=":B_3" function="internal">
        <lane id=":B_3_0" index="0" speed="11.36" length="29.67" shape="18.40,66.80 19.55,58.75 23.00,53.00 28.75,49.55 36.80,48.40"/>
    </edge>
    <edge id=":B_4" function="internal">
        <lane id=":B_4_0" index="0" speed="6.51" length="9.03" shape="36.80,61.20 34.35,61.55 32.60,62.60 31.55,64.35 31.20,66.80"/>
    </edge>
    <edge id=":B_5" function="internal">
        <lane id=":B_5_0" index="0" speed="13.89" length="33.60" shape="36.80,58.00 3.20,58.00"/>
        <lane id=":B_5_1" index="1" speed="13.89" length="33.60" shape="36.80,54.80 3.20,54.80"/>
    </edge>
    <edge id=":B_7" function="internal">
        <lane id=":B_7_0" index="0" speed="11.36" length="29.67" shape="36.80,51.60 28.75,50.45 23.00,47.00 19.55,41.25 18.40,33.20"/>
    </edge>
    <edge id=":B_8" function="internal">
        <lane id=":B_8_0" index="0" speed="6.51" length="9.03" shape="31.20,33.20 31.55,35.65 32.60,37.40 34.35,38.45 36.80,38.80"/>
    </edge>
    <edge id=":B_9" function="internal">
        <lane id=":B_9_0" index="0" speed="13.89" length="33.60" shape="28.00,33.20 28.00,66.80"/>
        <lane id=":B_9_1" index="1" speed="13.89" length="33.60" shape="24.80,33.20 24.80,66.80"/>
    </edge>
    <edge id=":B_11" function="internal">
        <lane id=":B_11_0" index="0" speed="11.36" length="29.67" shape="21.60,33.20 20.45,41.25 17.00,47.00 11.25,50.45 3.20,51.60"/>
    </edge>
    <edge id=":B_12" function="internal">
        <lane id=":B_12_0" index="0" speed="6.51" length="9.03" shape="3.20,38.80 5.65,38.45 7.40,37.40 8.45,35.65 8.80,33.20"/>
    </edge>
    <edge id=":B_13" function="internal">
        <lane id=":B_13_0" index="0" speed="13.89" length="33.60" shape="3.20,42.00 36.80,42.00"/>
        <lane id=":B_13_1" index="1" speed="13.89" length="33.60" shape="3.20,45.20 36.80,45.20"/>
    </edge>
    <edge id=":B_15" function="internal">
        <lane id=":B_15_0" index="0" speed="11.36" length="29.67" shape="3.20,48.40 11.25,49.55 17.00,53.00 20.45,58.75 21.60,66.80"/>
    </edge>
    <edge id=":BAS_0" function="internal">
        <lane id=":BAS_0_0" index="0" speed="13.89" length="8.20" shape="-46.00,61.20 -48.46,60.70 -50.00,59.60 -51.54,58.50 -54.00,58.00"/>
        <lane id=":BAS_0_1" index="1" speed="13.89" length="8.20" shape="-46.00,58.00 -54.00,58.00"/>
        <lane id=":BAS_0_2" index="2" speed="13.89" length="8.20" shape="-46.00,54.80 -54.00,54.80"/>
        <lane id=":BAS_0_3" index="3" speed="13.89" length="8.20" shape="-46.00,51.60 -54.00,51.60"/>
    </edge>
    <edge id=":BCS_0" function="internal">
        <lane id=":BCS_0_0" index="0" speed="13.89" length="8.20" shape="31.20,106.00 30.70,108.46 29.60,110.00 28.50,111.54 28.00,114.00"/>
        <lane id=":BCS_0_1" index="1" speed="13.89" length="8.20" shape="28.00,106.00 28.00,114.00"/>
        <lane id=":BCS_0_2" index="2" speed="13.89" length="8.20" shape="24.80,106.00 24.80,114.00"/>
        <lane id=":BCS_0_3" index="3" speed="13.89" length="8.20" shape="21.60,106.00 21.60,114.00"/>
    </edge>
    <edge id=":BDS_0" function="internal">
        <lane id=":BDS_0_0" index="0" speed="13.89" length="8.20" shape="8.80,-6.00 9.30,-8.46 10.40,-10.00 11.50,-11.54 12.00,-14.00"/>
        <lane id=":BDS_0_1" index="1" speed="13.89" length="8.20" shape="12.00,-6.00 12.00,-14.00"/>
        <lane id=":BDS_0_2" index="2" speed="13.89" length="8.20" shape="15.20,-6.00 15.20,-14.00"/>
        <lane id=":BDS_0_3" index="3" speed="13.89" length="8.20" shape="18.40,-6.00 18.40,-14.00"/>
    </edge>
    <edge id=":CBS_0" function="internal">
        <lane id=":CBS_0_0" index="0" speed="13.89" length="8.20" shape="12.00,114.00 11.50,111.54 10.40,110.00 9.30,108.46 8.80,106.00"/>
        <lane id=":CBS_0_1" index="1" speed="13.89" length="8.20" shape="12.00,114.00 12.00,106.00"/>
        <lane id=":CBS_0_2" index="2" speed="13.89" length="8.20" shape="15.20,114.00 15.20,106.00"/>
        <lane id=":CBS_0_3" index="3" speed="13.89" length="8.20" shape="18.40,114.00 18.40,106.00"/>
    </edge>
    <edge id=":DBS_0" function="internal">
        <lane id=":DBS_0_0" index="0" speed="13.89" length="8.20" shape="28.00,-14.00 28.50,-11.54 29.60,-10.00 30.70,-8.46 31.20,-6.00"/>
        <lane id=":DBS_0_1" index="1" speed="13.89" length="8.20" shape="28.00,-14.00 28.00,-6.00"/>
        <lane id=":DBS_0_2" index="2" speed="13.89" length="8.20" shape="24.80,-14.00 24.80,-6.00"/>
        <lane id=":DBS_0_3" index="3" speed="13.89" length="8.20" shape="21.60,-14.00 21.60,-6.00"/>
    </edge>
    <edge id=":E_0" function="internal">
        <lane id=":E_0_0" index="0" speed="6.51" length="9.03" shape="138.80,66.80 138.45,64.35 137.40,62.60 135.65,61.55 133.20,61.20"/>
    </edge>
    <edge id=":E_1" function="internal">
        <lane id=":E_1_0" index="0" speed="13.89" length="33.60" shape="142.00,66.80 142.00,33.20"/>
        <lane id=":E_1_1" index="1" speed="13.89" length="33.60" shape="145.20,66.80 145.20,33.20"/>
    </edge>
    <edge id=":E_3" function="internal">
        <lane id=":E_3_0" index="0" speed="11.36" length="29.67" shape="148.40,66.80 149.55,58.75 153.00,53.00 158.75,49.55 166.80,48.40"/>
    </edge>
    <edge id=":E_4" function="internal">
        <lane id=":E_4_0" index="0" speed="6.51" length="9.03" shape="166.80,61.20 164.35,61.55 162.60,62.60 161.55,64.35 161.20,66.80"/>
    </edge>
    <edge id=":E_5" function="internal">
        <lane id=":E_5_0" index="0" speed="13.89" length="33.60" shape="166.80,58.00 133.20,58.00"/>
        <lane id=":E_5_1" index="1" speed="13.89" length="33.60" shape="166.80,54.80 133.20,54.80"/>
    </edge>
    <edge id=":E_7" function="internal">
        <lane id=":E_7_0" index="0" speed="11.36" length="29.67" shape="166.80,51.60 158.75,50.45 153.00,47.00 149.55,41.25 148.40,33.20"/>
    </edge>
    <edge id=":E_8" function="internal">
        <lane id=":E_8_0" index="0" speed="6.51" length="9.03" shape="161.20,33.20 161.55,35.65 162.60,37.40 164.35,38.45 166.80,38.80"/>
    </edge>
    <edge id=":E_9" function="internal">
        <lane id=":E_9_0" index="0" speed="13.89" length="33.60" shape="158.00,33.20 158.00,66.80"/>
        <lane id=":E_9_1" index="1" speed="13.89" length="33.60" shape="154.80,33.20 154.80,66.80"/>
    </edge>
    <edge id=":E_11" function="internal">
        <lane id=":E_11_0" index="0" speed="11.36" length="29.67" shape="151.60,33.20 150.45,41.25 147.00,47.00 141.25,50.45 133.20,51.60"/>
    </edge>
    <edge id=":E_12" function="internal">
        <lane id=":E_12_0" index="0" speed="6.51" length="9.03" shape="133.20,38.80 135.65,38.45 137.40,37.40 138.45,35.65 138.80,33.20"/>
    </edge>
    <edge id=":E_13" function="internal">
        <lane id=":E_13_0" index="0" speed="13.89" length="33.60" shape="133.20,42.00 166.80,42.00"/>
        <lane id=":E_13_1" index="1" speed="13.89" length="33.60" shape="133.20,45.20 166.80,45.20"/>
    </edge>
    <edge id=":E_15" function="internal">
        <lane id=":E_15_0" index="0" speed="11.36" length="29.67" shape="133.20,48.40 141.25,49.55 147.00,53.00 150.45,58.75 151.60,66.80"/>
    </edge>
    <edge id=":EFS_0" function="internal">
        <lane id=":EFS_0_0" index="0" speed="13.89" length="8.20" shape="161.20,106.00 160.70,108.46 159.60,110.00 158.50,111.54 158.00,114.00"/>
        <lane id=":EFS_0_1" index="1" speed="13.89" length="8.20" shape="158.00,106.00 158.00,114.00"/>
        <lane id=":EFS_0_2" index="2" speed="13.89" length="8.20" shape="154.80,106.00 154.80,114.00"/>
        <lane id=":EFS_0_3" index="3" speed="13.89" length="8.20" shape="151.60,106.00 151.60,114.00"/>
    </edge>
    <edge id=":EGS_0" function="internal">
        <lane id=":EGS_0_0" index="0" speed="13.89" length="8.20" shape="138.80,-6.00 139.30,-8.46 140.40,-10.00 141.50,-11.54 142.00,-14.00"/>
        <lane id=":EGS_0_1" index="1" speed="13.89" length="8.20" shape="142.00,-6.00 142.00,-14.00"/>
        <lane id=":EGS_0_2" index="2" speed="13.89" length="8.20" shape="145.20,-6.00 145.20,-14.00"/>
        <lane id=":EGS_0_3" index="3" speed="13.89" length="8.20" shape="148.40,-6.00 148.40,-14.00"/>
    </edge>
    <edge id=":EHS_0" function="internal">
        <lane id=":EHS_0_0" index="0" speed="13.89" length="8.20" shape="216.00,38.80 218.46,39.30 220.00,40.40 221.54,41.50 224.00,42.00"/>
        <lane id=":EHS_0_1" index="1" speed="13.89" length="8.20" shape="216.00,42.00 224.00,42.00"/>
        <lane id=":EHS_0_2" index="2" speed="13.89" length="8.20" shape="216.00,45.20 224.00,45.20"/>
        <lane id=":EHS_0_3" index="3" speed="13.89" length="8.20" shape="216.00,48.40 224.00,48.40"/>
    </edge>
    <edge id=":FES_0" function="internal">
        <lane id=":FES_0_0" index="0" speed="13.89" length="8.20" shape="142.00,114.00 141.50,111.54 140.40,110.00 139.30,108.46 138.80,106.00"/>
        <lane id=":FES_0_1" index="1" speed="13.89" length="8.20" shape="142.00,114.00 142.00,106.00"/>
        <lane id=":FES_0_2" index="2" speed="13.89" length="8.20" shape="145.20,114.00 145.20,106.00"/>
        <lane id=":FES_0_3" index="3" speed="13.89" length="8.20" shape="148.40,114.00 148.40,106.00"/>
    </edge>
    <edge id=":GES_0" function="internal">
        <lane id=":GES_0_0" index="0" speed="13.89" length="8.20" shape="158.00,-14.00 158.50,-11.54 159.60,-10.00 160.70,-8.46 161.20,-6.00"/>
        <lane id=":GES_0_1" index="1" speed="13.89" length="8.20" shape="158.00,-14.00 158.00,-6.00"/>
        <lane id=":GES_0_2" index="2" speed="13.89" length="8.20" shape="154.80,-14.00 154.80,-6.00"/>
        <lane id=":GES_0_3" index="3" speed="13.89" length="8.20" shape="151.60,-14.00 151.60,-6.00"/>
    </edge>
    <edge id=":HES_0" function="internal">
        <lane id=":HES_0_0" index="0" speed="13.89" length="8.20" shape="224.00,58.00 221.54,58.50 220.00,59.60 218.46,60.70 216.00,61.20"/>
        <lane id=":HES_0_1" index="1" speed="13.89" length="8.20" shape="224.00,58.00 216.00,58.00"/>
        <lane id=":HES_0_2" index="2" speed="13.89" length="8.20" shape="224.00,54.80 216.00,54.80"/>
        <lane id=":HES_0_3" index="3" speed="13.89" length="8.20" shape="224.00,51.60 216.00,51.60"/>
    </edge>

    <edge id="AB1" from="A" to="ABS" priority="-1">
        <lane id="AB1_0" index="0" speed="13.89" length="96.00" shape="-150.00,42.00 -54.00,42.00"/>
        <lane id="AB1_1" index="1" speed="13.89" length="96.00" shape="-150.00,45.20 -54.00,45.20"/>
        <lane id="AB1_2" index="2" speed="13.89" length="96.00" shape="-150.00,48.40 -54.00,48.40"/>
    </edge>
    <edge id="AB2" from="ABS" to="B" priority="-1">
        <lane id="AB2_0" index="0" speed="13.89" length="49.20" shape="-46.00,38.80 3.20,38.80"/>
        <lane id="AB2_1" index="1" speed="13.89" length="49.20" shape="-46.00,42.00 3.20,42.00"/>
        <lane id="AB2_2" index="2" speed="13.89" length="49.20" shape="-46.00,45.20 3.20,45.20"/>
        <lane id="AB2_3" index="3" speed="13.89" length="49.20" shape="-46.00,48.40 3.20,48.40"/>
    </edge>
    <edge id="BA1" from="B" to="BAS" priority="-1">
        <lane id="BA1_0" index="0" speed="13.89" length="49.20" shape="3.20,61.20 -46.00,61.20"/>
        <lane id="BA1_1" index="1" speed="13.89" length="49.20" shape="3.20,58.00 -46.00,58.00"/>
        <lane id="BA1_2" index="2" speed="13.89" length="49.20" shape="3.20,54.80 -46.00,54.80"/>
        <lane id="BA1_3" index="3" speed="13.89" length="49.20" shape="3.20,51.60 -46.00,51.60"/>
    </edge>
    <edge id="BA2" from="BAS" to="A" priority="-1">
        <lane id="BA2_0" index="0" speed="13.89" length="96.00" shape="-54.00,58.00 -150.00,58.00"/>
        <lane id="BA2_1" index="1" speed="13.89" length="96.00" shape="-54.00,54.80 -150.00,54.80"/>
        <lane id="BA2_2" index="2" speed="13.89" length="96.00" shape="-54.00,51.60 -150.00,51.60"/>
    </edge>
    <edge id="BC1" from="B" to="BCS" priority="-1">
        <lane id="BC1_0" index="0" speed="13.89" length="39.20" shape="31.20,66.80 31.20,106.00"/>
        <lane id="BC1_1" index="1" speed="13.89" length="39.20" shape="28.00,66.80 28.00,106.00"/>
        <lane id="BC1_2" index="2" speed="13.89" length="39.20" shape="24.80,66.80 24.80,106.00"/>
        <lane id="BC1_3" index="3" speed="13.89" length="39.20" shape="21.60,66.80 21.60,106.00"/>
    </edge>
    <edge id="BC2" from="BCS" to="C" priority="-1">
        <lane id="BC2_0" index="0" speed="13.89" length="46.00" shape="28.00,114.00 28.00,160.00"/>
        <lane id="BC2_1" index="1" speed="13.89" length="46.00" shape="24.80,114.00 24.80,160.00"/>
        <lane id="BC2_2" index="2" speed="13.89" length="46.00" shape="21.60,114.00 21.60,160.00"/>
    </edge>
    <edge id="BD1" from="B" to="BDS" priority="-1">
        <lane id="BD1_0" index="0" speed="13.89" length="39.20" shape="8.80,33.20 8.80,-6.00"/>
        <lane id="BD1_1" index="1" speed="13.89" length="39.20" shape="12.00,33.20 12.00,-6.00"/>
        <lane id="BD1_2" index="2" speed="13.89" length="39.20" shape="15.20,33.20 15.20,-6.00"/>
        <lane id="BD1_3" index="3" speed="13.89" length="39.20" shape="18.40,33.20 18.40,-6.00"/>
    </edge>
    <edge id="BD2" from="BDS" to="D" priority="-1">
        <lane id="BD2_0" index="0" speed="13.89" length="46.00" shape="12.00,-14.00 12.00,-60.00"/>
        <lane id="BD2_1" index="1" speed="13.89" length="46.00" shape="15.20,-14.00 15.20,-60.00"/>
        <lane id="BD2_2" index="2" speed="13.89" length="46.00" shape="18.40,-14.00 18.40,-60.00"/>
    </edge>
    <edge id="BE" from="B" to="E" priority="-1">
        <lane id="BE_0" index="0" speed="13.89" length="96.40" shape="36.80,38.80 133.20,38.80"/>
        <lane id="BE_1" index="1" speed="13.89" length="96.40" shape="36.80,42.00 133.20,42.00"/>
        <lane id="BE_2" index="2" speed="13.89" length="96.40" shape="36.80,45.20 133.20,45.20"/>
        <lane id="BE_3" index="3" speed="13.89" length="96.40" shape="36.80,48.40 133.20,48.40"/>
    </edge>
    <edge id="CB1" from="C" to="CBS" priority="-1">
        <lane id="CB1_0" index="0" speed="13.89" length="46.00" shape="12.00,160.00 12.00,114.00"/>
        <lane id="CB1_1" index="1" speed="13.89" length="46.00" shape="15.20,160.00 15.20,114.00"/>
        <lane id="CB1_2" index="2" speed="13.89" length="46.00" shape="18.40,160.00 18.40,114.00"/>
    </edge>
    <edge id="CB2" from="CBS" to="B" priority="-1">
        <lane id="CB2_0" index="0" speed="13.89" length="39.20" shape="8.80,106.00 8.80,66.80"/>
        <lane id="CB2_1" index="1" speed="13.89" length="39.20" shape="12.00,106.00 12.00,66.80"/>
        <lane id="CB2_2" index="2" speed="13.89" length="39.20" shape="15.20,106.00 15.20,66.80"/>
        <lane id="CB2_3" index="3" speed="13.89" length="39.20" shape="18.40,106.00 18.40,66.80"/>
    </edge>
    <edge id="DB1" from="D" to="DBS" priority="-1">
        <lane id="DB1_0" index="0" speed="13.89" length="46.00" shape="28.00,-60.00 28.00,-14.00"/>
        <lane id="DB1_1" index="1" speed="13.89" length="46.00" shape="24.80,-60.00 24.80,-14.00"/>
        <lane id="DB1_2" index="2" speed="13.89" length="46.00" shape="21.60,-60.00 21.60,-14.00"/>
    </edge>
    <edge id="DB2" from="DBS" to="B" priority="-1">
        <lane id="DB2_0" index="0" speed="13.89" length="39.20" shape="31.20,-6.00 31.20,33.20"/>
        <lane id="DB2_1" index="1" speed="13.89" length="39.20" shape="28.00,-6.00 28.00,33.20"/>
        <lane id="DB2_2" index="2" speed="13.89" length="39.20" shape="24.80,-6.00 24.80,33.20"/>
        <lane id="DB2_3" index="3" speed="13.89" length="39.20" shape="21.60,-6.00 21.60,33.20"/>
    </edge>
    <edge id="EB" from="E" to="B" priority="-1">
        <lane id="EB_0" index="0" speed="13.89" length="96.40" shape="133.20,61.20 36.80,61.20"/>
        <lane id="EB_1" index="1" speed="13.89" length="96.40" shape="133.20,58.00 36.80,58.00"/>
        <lane id="EB_2" index="2" speed="13.89" length="96.40" shape="133.20,54.80 36.80,54.80"/>
        <lane id="EB_3" index="3" speed="13.89" length="96.40" shape="133.20,51.60 36.80,51.60"/>
    </edge>
    <edge id="EF1" from="E" to="EFS" priority="-1">
        <lane id="EF1_0" index="0" speed="13.89" length="39.20" shape="161.20,66.80 161.20,106.00"/>
        <lane id="EF1_1" index="1" speed="13.89" length="39.20" shape="158.00,66.80 158.00,106.00"/>
        <lane id="EF1_2" index="2" speed="13.89" length="39.20" shape="154.80,66.80 154.80,106.00"/>
        <lane id="EF1_3" index="3" speed="13.89" length="39.20" shape="151.60,66.80 151.60,106.00"/>
    </edge>
    <edge id="EF2" from="EFS" to="F" priority="-1">
        <lane id="EF2_0" index="0" speed="13.89" length="46.00" shape="158.00,114.00 158.00,160.00"/>
        <lane id="EF2_1" index="1" speed="13.89" length="46.00" shape="154.80,114.00 154.80,160.00"/>
        <lane id="EF2_2" index="2" speed="13.89" length="46.00" shape="151.60,114.00 151.60,160.00"/>
    </edge>
    <edge id="EG1" from="E" to="EGS" priority="-1">
        <lane id="EG1_0" index="0" speed="13.89" length="39.20" shape="138.80,33.20 138.80,-6.00"/>
        <lane id="EG1_1" index="1" speed="13.89" length="39.20" shape="142.00,33.20 142.00,-6.00"/>
        <lane id="EG1_2" index="2" speed="13.89" length="39.20" shape="145.20,33.20 145.20,-6.00"/>
        <lane id="EG1_3" index="3" speed="13.89" length="39.20" shape="148.40,33.20 148.40,-6.00"/>
    </edge>
    <edge id="EG2" from="EGS" to="G" priority="-1">
        <lane id="EG2_0" index="0" speed="13.89" length="46.00" shape="142.00,-14.00 142.00,-60.00"/>
        <lane id="EG2_1" index="1" speed="13.89" length="46.00" shape="145.20,-14.00 145.20,-60.00"/>
        <lane id="EG2_2" index="2" speed="13.89" length="46.00" shape="148.40,-14.00 148.40,-60.00"/>
    </edge>
    <edge id="EH1" from="E" to="EHS" priority="-1">
        <lane id="EH1_0" index="0" speed="13.89" length="49.20" shape="166.80,38.80 216.00,38.80"/>
        <lane id="EH1_1" index="1" speed="13.89" length="49.20" shape="166.80,42.00 216.00,42.00"/>
        <lane id="EH1_2" index="2" speed="13.89" length="49.20" shape="166.80,45.20 216.00,45.20"/>
        <lane id="EH1_3" index="3" speed="13.89" length="49.20" shape="166.80,48.40 216.00,48.40"/>
    </edge>
    <edge id="EH2" from="EHS" to="H" priority="-1">
        <lane id="EH2_0" index="0" speed="13.89" length="96.00" shape="224.00,42.00 320.00,42.00"/>
        <lane id="EH2_1" index="1" speed="13.89" length="96.00" shape="224.00,45.20 320.00,45.20"/>
        <lane id="EH2_2" index="2" speed="13.89" length="96.00" shape="224.00,48.40 320.00,48.40"/>
    </edge>
    <edge id="FE1" from="F" to="FES" priority="-1">
        <lane id="FE1_0" index="0" speed="13.89" length="46.00" shape="142.00,160.00 142.00,114.00"/>
        <lane id="FE1_1" index="1" speed="13.89" length="46.00" shape="145.20,160.00 145.20,114.00"/>
        <lane id="FE1_2" index="2" speed="13.89" length="46.00" shape="148.40,160.00 148.40,114.00"/>
    </edge>
    <edge id="FE2" from="FES" to="E" priority="-1">
        <lane id="FE2_0" index="0" speed="13.89" length="39.20" shape="138.80,106.00 138.80,66.80"/>
        <lane id="FE2_1" index="1" speed="13.89" length="39.20" shape="142.00,106.00 142.00,66.80"/>
        <lane id="FE2_2" index="2" speed="13.89" length="39.20" shape="145.20,106.00 145.20,66.80"/>
        <lane id="FE2_3" index="3" speed="13.89" length="39.20" shape="148.40,106.00 148.40,66.80"/>
    </edge>
    <edge id="GE1" from="G" to="GES" priority="-1">
        <lane id="GE1_0" index="0" speed="13.89" length="46.00" shape="158.00,-60.00 158.00,-14.00"/>
        <lane id="GE1_1" index="1" speed="13.89" length="46.00" shape="154.80,-60.00 154.80,-14.00"/>
        <lane id="GE1_2" index="2" speed="13.89" length="46.00" shape="151.60,-60.00 151.60,-14.00"/>
    </edge>
    <edge id="GE2" from="GES" to="E" priority="-1">
        <lane id="GE2_0" index="0" speed="13.89" length="39.20" shape="161.20,-6.00 161.20,33.20"/>
        <lane id="GE2_1" index="1" speed="13.89" length="39.20" shape="158.00,-6.00 158.00,33.20"/>
        <lane id="GE2_2" index="2" speed="13.89" length="39.20" shape="154.80,-6.00 154.80,33.20"/>
        <lane id="GE2_3" index="3" speed="13.89" length="39.20" shape="151.60,-6.00 151.60,33.20"/>
    </edge>
    <edge id="HE1" from="H" to="HES" priority="-1">
        <lane id="HE1_0" index="0" speed="13.89" length="96.00" shape="320.00,58.00 224.00,58.00"/>
        <lane id="HE1_1" index="1" speed="13.89" length="96.00" shape="320.00,54.80 224.00,54.80"/>
        <lane id="HE1_2" index="2" speed="13.89" length="96.00" shape="320.00,51.60 224.00,51.60"/>
    </edge>
    <edge id="HE2" from="HES" to="E" priority="-1">
        <lane id="HE2_0" index="0" speed="13.89" length="49.20" shape="216.00,61.20 166.80,61.20"/>
        <lane id="HE2_1" index="1" speed="13.89" length="49.20" shape="216.00,58.00 166.80,58.00"/>
        <lane id="HE2_2" index="2" speed="13.89" length="49.20" shape="216.00,54.80 166.80,54.80"/>
        <lane id="HE2_3" index="3" speed="13.89" length="49.20" shape="216.00,51.60 166.80,51.60"/>
    </edge>

    <tlLogic id="B" type="static" programID="0" offset="0">
        <phase duration="33" state="GGGrGrrrrGGGrGrrrr"/>
        <phase duration="3"  state="GyyrGrrrrGyyrGrrrr"/>
        <phase duration="6"  state="GrrGGrrrrGrrGGrrrr"/>
        <phase duration="3"  state="GrryGrrrrGrryGrrrr"/>
        <phase duration="33" state="GrrrGGGGrGrrrGGGGr"/>
        <phase duration="3"  state="GrrrGyyyrGrrrGyyyr"/>
        <phase duration="6"  state="GrrrGrrrGGrrrGrrrG"/>
        <phase duration="3"  state="GrrrGrrryGrrrGrrry"/>
    </tlLogic>
    <tlLogic id="E" type="static" programID="0" offset="0">
        <phase duration="33" state="GGGrGrrrGGGrGrrr"/>
        <phase duration="3"  state="GyyrGrrrGyyrGrrr"/>
        <phase duration="6"  state="GrrGGrrrGrrGGrrr"/>
        <phase duration="3"  state="GrryGrrrGrryGrrr"/>
        <phase duration="33" state="GrrrGGGrGrrrGGGr"/>
        <phase duration="3"  state="GrrrGyyrGrrrGyyr"/>
        <phase duration="6"  state="GrrrGrrGGrrrGrrG"/>
        <phase duration="3"  state="GrrrGrryGrrrGrry"/>
    </tlLogic>

    <junction id="A" type="dead_end" x="-150.00" y="50.00" incLanes="BA2_0 BA2_1 BA2_2" intLanes="" shape="-150.00,50.00 -150.00,59.60 -150.00,50.00"/>
    <junction id="ABS" type="priority" x="-50.00" y="50.00" incLanes="AB1_0 AB1_1 AB1_2" intLanes=":ABS_0_0 :ABS_0_1 :ABS_0_2 :ABS_0_3" shape="-46.00,50.00 -46.00,37.20 -49.03,38.03 -50.97,39.57 -52.21,40.16 -54.00,40.40 -54.00,50.00">
        <request index="0" response="0000" foes="0000" cont="0"/>
        <request index="1" response="0000" foes="0000" cont="0"/>
        <request index="2" response="0000" foes="0000" cont="0"/>
        <request index="3" response="0000" foes="0000" cont="0"/>
    </junction>
    <junction id="B" type="traffic_light_right_on_red" x="20.00" y="50.00" incLanes="CB2_0 CB2_1 CB2_2 CB2_3 EB_0 EB_1 EB_2 EB_3 DB2_0 DB2_1 DB2_2 DB2_3 AB2_0 AB2_1 AB2_2 AB2_3" intLanes=":B_0_0 :B_1_0 :B_1_1 :B_3_0 :B_4_0 :B_5_0 :B_5_1 :B_7_0 :B_8_0 :B_9_0 :B_9_1 :B_11_0 :B_12_0 :B_13_0 :B_13_1 :B_15_0" shape="7.20,66.80 32.80,66.80 33.24,64.58 33.80,63.80 34.58,63.24 35.58,62.91 36.80,62.80 36.80,37.20 34.58,36.76 33.80,36.20 33.24,35.42 32.91,34.42 32.80,33.20 7.20,33.20 6.76,35.42 6.20,36.20 5.42,36.76 4.42,37.09 3.20,37.20 3.20,62.80 5.42,63.24 6.20,63.80 6.76,64.58 7.09,65.58">
        <request index="0"  response="0000000000000000" foes="0000000000000000" cont="0"/>
        <request index="1"  response="0000000000000000" foes="1110100001100000" cont="0"/>
        <request index="2"  response="0000000000000000" foes="1110100001100000" cont="0"/>
        <request index="3"  response="0000011000000000" foes="1000011011100000" cont="0"/>
        <request index="4"  response="0000000000000000" foes="0000000000000000" cont="0"/>
        <request index="5"  response="0000011000001110" foes="1000011000001110" cont="0"/>
        <request index="6"  response="0000011000001110" foes="1000011000001110" cont="0"/>
        <request index="7"  response="0110111000001000" foes="0110111000001000" cont="0"/>
        <request index="8"  response="0000000000000000" foes="0000000000000000" cont="0"/>
        <request index="9"  response="0000000000000000" foes="0110000011101000" cont="0"/>
        <request index="10" response="0000000000000000" foes="0110000011101000" cont="0"/>
        <request index="11" response="0000000000000110" foes="1110000010000110" cont="0"/>
        <request index="12" response="0000000000000000" foes="0000000000000000" cont="0"/>
        <request index="13" response="0000111000000110" foes="0000111010000110" cont="0"/>
        <request index="14" response="0000111000000110" foes="0000111010000110" cont="0"/>
        <request index="15" response="0000100001101110" foes="0000100001101110" cont="0"/>
    </junction>
    <junction id="BAS" type="zipper" x="-50.00" y="50.00" incLanes="BA1_0 BA1_1 BA1_2 BA1_3" intLanes=":BAS_0_0 :BAS_0_1 :BAS_0_2 :BAS_0_3" shape="-46.00,62.80 -46.00,50.00 -54.00,50.00 -54.00,59.60 -50.97,60.43 -49.03,61.97 -47.79,62.56">
        <request index="0" response="0010" foes="0010" cont="0"/>
        <request index="1" response="0001" foes="0001" cont="0"/>
        <request index="2" response="0000" foes="0000" cont="0"/>
        <request index="3" response="0000" foes="0000" cont="0"/>
    </junction>
    <junction id="BCS" type="zipper" x="20.00" y="110.00" incLanes="BC1_0 BC1_1 BC1_2 BC1_3" intLanes=":BCS_0_0 :BCS_0_1 :BCS_0_2 :BCS_0_3" shape="20.00,114.00 29.60,114.00 30.43,110.97 31.97,109.03 32.56,107.79 32.80,106.00 20.00,106.00">
        <request index="0" response="0010" foes="0010" cont="0"/>
        <request index="1" response="0001" foes="0001" cont="0"/>
        <request index="2" response="0000" foes="0000" cont="0"/>
        <request index="3" response="0000" foes="0000" cont="0"/>
    </junction>
    <junction id="BDS" type="zipper" x="20.00" y="-10.00" incLanes="BD1_0 BD1_1 BD1_2 BD1_3" intLanes=":BDS_0_0 :BDS_0_1 :BDS_0_2 :BDS_0_3" shape="7.20,-6.00 20.00,-6.00 20.00,-14.00 10.40,-14.00 9.57,-10.97 8.03,-9.03 7.44,-7.79">
        <request index="0" response="0010" foes="0010" cont="0"/>
        <request index="1" response="0001" foes="0001" cont="0"/>
        <request index="2" response="0000" foes="0000" cont="0"/>
        <request index="3" response="0000" foes="0000" cont="0"/>
    </junction>
    <junction id="C" type="dead_end" x="20.00" y="160.00" incLanes="BC2_0 BC2_1 BC2_2" intLanes="" shape="20.00,160.00 29.60,160.00 20.00,160.00"/>
    <junction id="CBS" type="priority" x="20.00" y="110.00" incLanes="CB1_0 CB1_1 CB1_2" intLanes=":CBS_0_0 :CBS_0_1 :CBS_0_2 :CBS_0_3" shape="10.40,114.00 20.00,114.00 20.00,106.00 7.20,106.00 8.03,109.03 9.57,110.97 10.16,112.21">
        <request index="0" response="0000" foes="0000" cont="0"/>
        <request index="1" response="0000" foes="0000" cont="0"/>
        <request index="2" response="0000" foes="0000" cont="0"/>
        <request index="3" response="0000" foes="0000" cont="0"/>
    </junction>
    <junction id="D" type="dead_end" x="20.00" y="-60.00" incLanes="BD2_0 BD2_1 BD2_2" intLanes="" shape="20.00,-60.00 10.40,-60.00 20.00,-60.00"/>
    <junction id="DBS" type="priority" x="20.00" y="-10.00" incLanes="DB1_0 DB1_1 DB1_2" intLanes=":DBS_0_0 :DBS_0_1 :DBS_0_2 :DBS_0_3" shape="20.00,-6.00 32.80,-6.00 31.97,-9.03 30.43,-10.97 29.84,-12.21 29.60,-14.00 20.00,-14.00">
        <request index="0" response="0000" foes="0000" cont="0"/>
        <request index="1" response="0000" foes="0000" cont="0"/>