<?xml version="1.0" encoding="UTF-8"?>
<routes xmlns:xsi="http://www.w3.org/2001/XMLSchema-instance" xsi:noNamespaceSchemaLocation="http://sumo.dlr.de/xsd/routes_file.xsd">
	<vType id="pkw" vClass="passenger" speedDev="0.1" length="4.3" minGap="1.5"/>
	<trip id="124779_406_0" type="pkw" depart="25205.00" from="28198821#3" to="32038051#0"/>
	<trip id="151372_418_0" type="pkw" depart="25207.00" from="130165204" to="32038051#0"/>
	<trip id="98305_395_0" type="pkw" depart="25211.00" from="28198821#3" to="32038051#0"/>
	<trip id="123965_406_0" type="pkw" depart="25218.00" from="-32038056#3" to="-28198821#4"/>
	<trip id="91582_392_0" type="pkw" depart="25218.00" from="-32038056#3" to="32324544#0"/>
	<trip id="102535_396_0" type="pkw" depart="25218.00" from="28198821#3" to="32038051#0"/>
	<trip id="160150_421_0" type="pkw" depart="25219.00" from="-32038056#3" to="32038051#0"/>
	<trip id="147209_416_0" type="pkw" depart="25220.00" from="28198821#3" to="32038051#0"/>
	<trip id="162814_422_0" type="pkw" depart="25233.00" from="-32038056#3" to="32038051#0"/>
	<trip id="149029_417_0" type="pkw" depart="25236.00" from="27115123#2" to="32038051#0"/>
	<trip id="121258_405_0" type="pkw" depart="25240.00" from="23429231#1" to="32038051#0"/>
	<trip id="126742_407_0" type="pkw" depart="25240.00" from="23429231#1" to="32038051#0"/>
	<trip id="102501_396_0" type="pkw" depart="25244.00" from="23429231#1" to="32038051#0"/>
	<trip id="120663_405_0" type="pkw" depart="25246.00" from="23429231#1" to="32038051#0"/>
	<trip id="113509_402_0" type="pkw" depart="25248.00" from="23429231#1" to="-28198821#4"/>
	<trip id="130147_409_0" type="pkw" depart="25251.00" from="23429231#1" to="32038051#0"/>
	<trip id="102630_396_0" type="pkw" depart="25252.00" from="23429231#1" to="32038051#0"/>
	<trip id="122376_406_0" type="pkw" depart="25254.00" from="23429231#1" to="32038051#0"/>
	<trip id="122194_406_0" type="pkw" depart="25255.00" from="23429231#1" to="32038051#0"/>
	<trip id="135103_411_0" type="pkw" depart="25256.00" from="23429231#1" to="32038051#0"/>
	<trip id="152958_419_0" type="pkw" depart="25257.00" from="23429231#1" to="32038051#0"/>
	<trip id="125613_406_0" type="pkw" depart="25258.00" from="23429231#1" to="32038051#0"/>
	<trip id="133955_411_0" type="pkw" depart="25259.00" from="23429231#1" to="32038051#0"/>
	<trip id="129253_408_0" type="pkw" depart="25260.00" from="23429231#1" to="32038051#0"/>
	<trip id="120275_405_0" type="pkw" depart="25261.00" from="23429231#1" to="32038051#0"/>
	<trip id="134807_411_0" type="pkw" depart="25262.00" from="23429231#1" to="32324544#0"/>
	<trip id="135201_411_0" type="pkw" depart="25264.00" from="23429231#1" to="32038051#0"/>
	<trip id="86189_391_0" type="pkw" depart="25265.00" from="23429231#1" to="32038051#0"/>
	<trip id="57065_374_0" type="pkw" depart="25266.00" from="23429231#1" to="32038051#0"/>
	<trip id="129519_408_0" type="pkw" depart="25267.00" from="23429231#1" to="32038051#0"/>
	<trip id="130602_409_0" type="pkw" depart="25268.00" from="-32038056#3" to="-28198821#4"/>
	<trip id="82015_389_0" type="pkw" depart="25268.00" from="23429231#1" to="32038051#0"/>
	<trip id="136204_411_0" type="pkw" depart="25269.00" from="23429231#1" to="32038051#0"/>
	<trip id="135431_411_0" type="pkw" depart="25269.00" from="23429231#1" to="32038051#0"/>
	<trip id="146814_416_0" type="pkw" depart="25271.00" from="23429231#1" to="32038051#0"/>
	<trip id="125316_406_0" type="pkw" depart="25271.00" from="23429231#1" to="32038051#0"/>
	<trip id="128446_408_0" type="pkw" depart="25273.00" from="-32038056#3" to="32324544#0"/>
	<trip id="118286_405_0" type="pkw" depart="25273.00" from="23429231#1" to="32038051#0"/>
	<trip id="134435_411_0" type="pkw" depart="25273.00" from="23429231#1" to="32038051#0"/>
	<trip id="108236_400_0" type="pkw" depart="25274.00" from="23429231#1" to="32038051#0"/>
	<trip id="83516_390_0" type="pkw" depart="25275.00" from="-32038056#3" to="32324544#0"/>
	<trip id="146536_416_0" type="pkw" depart="25275.00" from="23429231#1" to="32038051#0"/>
	<trip id="110905_401_0" type="pkw" depart="25276.00" from="23429231#1" to="32038051#0"/>
	<trip id="136082_411_0" type="pkw" depart="25277.00" from="-32038056#3" to="32038051#0"/>
	<trip id="118931_405_0" type="pkw" depart="25277.00" from="23429231#1" to="32038051#0"/>
	<trip id="94647_393_0" type="pkw" depart="25278.00" from="23429231#1" to="32038051#0"/>
	<trip id="85818_390_0" type="pkw" depart="25280.00" from="-32038056#3" to="32038051#0"/>
	<trip id="157203_421_0" type="pkw" depart="25280.00" from="23429231#1" to="32038051#0"/>
	<trip id="139731_413_0" type="pkw" depart="25280.00" from="23429231#1" to="32038051#0"/>
	<trip id="137559_412_0" type="pkw" depart="25282.00" from="23429231#1" to="32038051#0"/>
	<trip id="106268_399_0" type="pkw" depart="25282.00" from="23429231#1" to="32038051#0"/>
	<trip id="113303_402_0" type="pkw" depart="25283.00" from="-32038056#3" to="32324544#0"/>
	<trip id="148629_417_0" type="pkw" depart="25284.00" from="27115123#2" to="32324544#0"/>
	<trip id="133688_411_0" type="pkw" depart="25284.00" from="23429231#1" to="32038051#0"/>
	<trip id="86583_391_0" type="pkw" depart="25289.00" from="-32038056#3" to="32038051#0"/>
	<trip id="120878_405_0" type="pkw" depart="25291.00" from="-32038056#3" to="32038051#0"/>
	<trip id="85922_391_0" type="pkw" depart="25293.00" from="-32038056#3" to="32038051#0"/>
	<trip id="137244_412_0" type="pkw" depart="25294.00" from="-32038056#3" to="-28198821#4"/>
	<trip id="115444_403_0" type="pkw" depart="25294.00" from="28198821#3" to="32038051#0"/>
	<trip id="103540_397_0" type="pkw" depart="25300.00" from="28198821#3" to="32038051#0"/>
	<trip id="118963_405_0" type="pkw" depart="25304.00" from="-32038056#3" to="32038051#0"/>
	<trip id="162096_421_0" type="pkw" depart="25306.00" from="130165204" to="32038051#0"/>
	<trip id="142412_415_0" type="pkw" depart="25307.00" from="-32038056#3" to="-28198821#4"/>
	<trip id="138220_412_0" type="pkw" depart="25309.00" from="-32038056#3" to="-28198821#4"/>
	<trip id="136152_411_0" type="pkw" depart="25313.00" from="-32038056#3" to="32038051#0"/>
	<trip id="175147_428_0" type="pkw" depart="25324.00" from="130165204" to="32038051#0"/>
	<trip id="167799_425_0" type="pkw" depart="25327.00" from="-32038056#3" to="-28198821#4"/>
	<trip id="130372_409_0" type="pkw" depart="25327.00" from="-32038056#3" to="32324544#0"/>
	<trip id="104806_398_0" type="pkw" depart="25329.00" from="-32038056#3" to="32324544#0"/>
	<trip id="122154_406_0" type="pkw" depart="25337.00" from="-32038056#3" to="-28198821#4"/>
	<trip id="161721_421_0" type="pkw" depart="25337.00" from="130165204" to="32038051#0"/>
	<trip id="149973_417_0" type="pkw" depart="25344.00" from="23429231#1" to="32038051#0"/>
	<trip id="127662_407_0" type="pkw" depart="25344.00" from="23429231#1" to="32324544#0"/>
	<trip id="121091_405_0" type="pkw" depart="25345.00" from="-32038056#3" to="32038051#0"/>
	<trip id="133819_411_0" type="pkw" depart="25347.00" from="23429231#1" to="32038051#0"/>
	<trip id="169772_426_0" type="pkw" depart="25347.00" from="-32038056#3" to="32038051#0"/>
	<trip id="135138_411_0" type="pkw" depart="25349.00" from="-32038056#3" to="-28198821#4"/>
	<trip id="99716_396_0" type="pkw" depart="25351.00" from="23429231#1" to="32038051#0"/>
	<trip id="150753_418_0" type="pkw" depart="25351.00" from="-32038056#3" to="32324544#0"/>
	<trip id="161963_421_0" type="pkw" depart="25352.00" from="23429231#1" to="32038051#0"/>
	<trip id="146948_416_0" type="pkw" depart="25353.00" from="23429231#1" to="32324544#0"/>
	<trip id="140822_414_0" type="pkw" depart="25359.00" from="23429231#1" to="32038051#0"/>
	<trip id="114183_402_0" type="pkw" depart="25359.00" from="-32038056#3" to="32038051#0"/>
	<trip id="154120_420_0" type="pkw" depart="25360.00" from="23429231#1" to="32038051#0"/>
	<trip id="148536_417_0" type="pkw" depart="25361.00" from="-32038056#3" to="32324544#0"/>
	<trip id="121429_406_0" type="pkw" depart="25362.00" from="23429231#1" to="32038051#0"/>
	<trip id="134511_411_0" type="pkw" depart="25362.00" from="23429231#1" to="32324544#0"/>
	<trip id="120618_405_0" type="pkw" depart="25363.00" from="-32038056#3" to="32038051#0"/>
	<trip id="161648_421_0" type="pkw" depart="25363.00" from="23429231#1" to="32038051#0"/>
	<trip id="167170_425_0" type="pkw" depart="25364.00" from="-32038056#3" to="-28198821#4"/>
	<trip id="109585_401_0" type="pkw" depart="25365.00" from="23429231#1" to="32038051#0"/>
	<trip id="165043_423_0" type="pkw" depart="25366.00" from="-32038056#3" to="32324544#0"/>
	<trip id="111249_401_0" type="pkw" depart="25366.00" from="23429231#1" to="32324544#0"/>
	<trip id="137508_412_0" type="pkw" depart="25367.00" from="-32038056#3" to="32038051#0"/>
	<trip id="101928_396_0" type="pkw" depart="25368.00" from="23429231#1" to="32038051#0"/>
	<trip id="155579_420_0" type="pkw" depart="25368.00" from="23429231#1" to="32038051#0"/>
	<trip id="173487_427_0" type="pkw" depart="25369.00" from="-32038056#3" to="32038051#0"/>
	<trip id="104556_397_0" type="pkw" depart="25370.00" from="23429231#1" to="-28198821#4"/>
	<trip id="125385_406_0" type="pkw" depart="25370.00" from="23429231#1" to="32324544#0"/>
	<trip id="162547_422_0" type="pkw" depart="25370.00" from="-32038056#3" to="32038051#0"/>
	<trip id="171810_426_0" type="pkw" depart="25372.00" from="-32038056#3" to="32038051#0"/>
	<trip id="117534_404_0" type="pkw" depart="25372.00" from="23429231#1" to="32038051#0"/>
	<trip id="93126_392_0" type="pkw" depart="25373.00" from="23429231#1" to="32324544#0"/>
	<trip id="163503_422_0" type="pkw" depart="25375.00" from="-32038056#3" to="-28198821#4"/>
	<trip id="117148_404_0" type="pkw" depart="25375.00" from="23429231#1" to="32038051#0"/>
	<trip id="120308_405_0" type="pkw" depart="25375.00" from="23429231#1" to="32324544#0"/>
	<trip id="95948_394_0" type="pkw" depart="25376.00" from="-32038056#3" to="-28198821#4"/>
	<trip id="113625_402_0" type="pkw" depart="25377.00" from="23429231#1" to="32324544#0"/>
	<trip id="115620_403_0" type="pkw" depart="25377.00" from="-32038056#3" to="-28198821#4"/>
	<trip id="127513_407_0" type="pkw" depart="25378.00" from="-32038056#3" to="-28198821#4"/>
	<trip id="139126_413_0" type="pkw" depart="25379.00" from="23429231#1" to="-28198821#4"/>
	<trip id="84424_390_0" type="pkw" depart="25380.00" from="-32038056#3" to="32038051#0"/>
	<trip id="100057_396_0" type="pkw" depart="25384.00" from="-32038056#3" to="32038051#0"/>
	<trip id="119040_405_0" type="pkw" depart="25386.00" from="-32038056#3" to="-28198821#4"/>
	<trip id="92315_392_0" type="pkw" depart="25388.00" from="-32038056#3" to="32038051#0"/>
	<trip id="163150_422_0" type="pkw" depart="25393.00" from="-32038056#3" to="32324544#0"/>
	<trip id="105238_398_0" type="pkw" depart="25394.00" from="-32038056#3" to="32324544#0"/>
	<trip id="139080_413_0" type="pkw" depart="25397.00" from="-32038056#3" to="-28198821#4"/>
	<trip id="149846_417_0" type="pkw" depart="25398.00" from="-32038056#3" to="32038051#0"/>
	<trip id="100926_396_0" type="pkw" depart="25400.00" from="-32038056#3" to="32038051#0"/>
	<trip id="140041_414_0" type="pkw" depart="25403.00" from="23429231#1" to="32324544#0"/>
	<trip id="106883_399_0" type="pkw" depart="25408.00" from="23429231#1" to="32324544#0"/>
	<trip id="145157_416_0" type="pkw" depart="25410.00" from="-32038056#3" to="32038051#0"/>
	<trip id="141862_415_0" type="pkw" depart="25411.00" from="-32038056#3" to="-28198821#4"/>
	<trip id="116804_404_0" type="pkw" depart="25411.00" from="23429231#1" to="32038051#0"/>
	<trip id="114134_402_0" type="pkw" depart="25413.00" from="-32038056#3" to="32324544#0"/>
	<trip id="137320_412_0" type="pkw" depart="25414.00" from="130165204" to="32038051#0"/>
	<trip id="176093_428_0" type="pkw" depart="25417.00" from="-32038056#3" to="-28198821#4"/>
	<trip id="144491_416_0" type="pkw" depart="25417.00" from="23429231#1" to="32038051#0"/>
	<trip id="114601_403_0" type="pkw" depart="25417.00" from="23429231#1" to="32324544#0"/>
	<trip id="121964_406_0" type="pkw" depart="25418.00" from="-32038056#3" to="32038051#0"/>
	<trip id="148479_417_0" type="pkw" depart="25423.00" from="23429231#1" to="32324544#0"/>
	<trip id="97739_395_0" type="pkw" depart="25425.00" from="-32038056#3" to="-28198821#4"/>
	<trip id="107932_400_0" type="pkw" depart="25426.00" from="23429231#1" to="32038051#0"/>
	<trip id="106784_399_0" type="pkw" depart="25426.00" from="23429231#1" to="32324544#0"/>
	<trip id="121832_406_0" type="pkw" depart="25428.00" from="-32038056#3" to="-28198821#4"/>
	<trip id="154290_420_0" type="pkw" depart="25431.00" from="27115123#2" to="32324544#0"/>
	<trip id="129330_408_0" type="pkw" depart="25432.00" from="27115123#2" to="32324544#0"/>
	<trip id="117960_404_0" type="pkw" depart="25433.00" from="-32038056#3" to="32324544#0"/>
	<trip id="119623_405_0" type="pkw" depart="25435.00" from="-32038056#3" to="32038056#0"/>
	<trip id="104968_398_0" type="pkw" depart="25443.00" from="-32038056#3" to="-28198821#4"/>
	<trip id="131495_410_0" type="pkw" depart="25444.00" from="-32038056#3" to="32324544#0"/>
	<trip id="89629_391_0" type="pkw" depart="25446.00" from="-32038056#3" to="32324544#0"/>
	<trip id="138516_412_0" type="pkw" depart="25454.00" from="-32038056#3" to="32324544#0"/>
	<trip id="101974_396_0" type="pkw" depart="25456.00" from="-32038056#3" to="32324544#0"/>
	<trip id="129025_408_0" type="pkw" depart="25456.00" from="-32038056#3" to="-28198821#4"/>
	<trip id="124133_406_0" type="pkw" depart="25458.00" from="-32038056#3" to="-28198821#4"/>
	<trip id="67983_381_0" type="pkw" depart="25458.00" from="-32038056#3" to="32324544#0"/>
	<trip id="129413_408_0" type="pkw" depart="25459.00" from="-32038056#3" to="-28198821#4"/>
	<trip id="148120_417_0" type="pkw" depart="25460.00" from="-32038056#3" to="32038051#0"/>
	<trip id="153635_420_0" type="pkw" depart="25460.00" from="27115123#2" to="32324544#0"/>
	<trip id="140819_414_0" type="pkw" depart="25461.00" from="-32038056#3" to="-28198821#4"/>
	<trip id="75513_386_0" type="pkw" depart="25461.00" from="-32038056#3" to="32038051#0"/>
	<trip id="156366_420_0" type="pkw" depart="25463.00" from="-32038056#3" to="-28198821#4"/>
	<trip id="140123_414_0" type="pkw" depart="25463.00" from="-32038056#3" to="32038051#0"/>
	<trip id="145391_416_0" type="pkw" depart="25466.00" from="23429231#1" to="32038051#0"/>
	<trip id="161689_421_0" type="pkw" depart="25467.00" from="130165204" to="32324544#0"/>
	<trip id="97374_395_0" type="pkw" depart="25468.00" from="-32038056#3" to="32324544#0"/>
	<trip id="164382_422_0" type="pkw" depart="25469.00" from="130165204" to="32324544#0"/>
	<trip id="145855_416_0" type="pkw" depart="25469.00" from="27115123#2" to="32324544#0"/>
	<trip id="102805_396_0" type="pkw" depart="25470.00" from="23429231#1" to="32038051#0"/>
	<trip id="95712_394_0" type="pkw" depart="25471.00" from="-32038056#3" to="32038051#0"/>
	<trip id="100928_396_0" type="pkw" depart="25472.00" from="130165204" to="32324544#0"/>
	<trip id="110527_401_0" type="pkw" depart="25473.00" from="-32038056#3" to="32038051#0"/>
	<trip id="142878_415_0" type="pkw" depart="25477.00" from="-32038056#3" to="-28198821#4"/>
	<trip id="149073_417_0" type="pkw" depart="25477.00" from="23429231#1" to="-28198821#4"/>
	<trip id="119004_405_0" type="pkw" depart="25479.00" from="23429231#1" to="32038051#0"/>
	<trip id="110033_401_0" type="pkw" depart="25480.00" from="23429231#1" to="32324544#0"/>
	<trip id="118661_405_0" type="pkw" depart="25480.00" from="-32038056#3" to="-28198821#4"/>
	<trip id="146065_416_0" type="pkw" depart="25481.00" from="23429231#1" to="32038056#0"/>
	<trip id="130797_409_0" type="pkw" depart="25482.00" from="23429231#1" to="32324544#0"/>
	<trip id="162490_421_0" type="pkw" depart="25484.00" from="-32038056#3" to="32324544#0"/>
	<trip id="126718_407_0" type="pkw" depart="25485.00" from="23429231#1" to="32324544#0"/>
	<trip id="61354_376_0" type="pkw" depart="25486.00" from="-32038056#3" to="32038051#0"/>
	<trip id="126424_407_0" type="pkw" depart="25487.00" from="23429231#1" to="32324544#0"/>
	<trip id="121971_406_0" type="pkw" depart="25488.00" from="-32038056#3" to="32038051#0"/>
	<trip id="80409_388_0" type="pkw" depart="25489.00" from="-32038056#3" to="-28198821#4"/>
	<trip id="129661_409_0" type="pkw" depart="25489.00" from="23429231#1" to="32038056#0"/>
	<trip id="119953_405_0" type="pkw" depart="25489.00" from="23429231#1" to="32038056#0"/>
	<trip id="175864_428_0" type="pkw" depart="25490.00" from="130165204" to="32324544#0"/>
	<trip id="124728_406_0" type="pkw" depart="25491.00" from="23429231#1" to="32038051#0"/>
	<trip id="139795_413_0" type="pkw" depart="25492.00" from="-32038056#3" to="32038051#0"/>
	<trip id="137952_412_0" type="pkw" depart="25492.00" from="23429231#1" to="32038051#0"/>
	<trip id="123765_406_0" type="pkw" depart="25492.00" from="23429231#1" to="32038056#0"/>
	<trip id="159698_421_0" type="pkw" depart="25493.00" from="130165204" to="32324544#0"/>
	<trip id="130240_409_0" type="pkw" depart="25494.00" from="23429231#1" to="32038056#0"/>
	<trip id="136398_411_0" type="pkw" depart="25494.00" from="-32038056#3" to="-28198821#4"/>
	<trip id="153383_420_0" type="pkw" depart="25495.00" from="23429231#1" to="32038051#0"/>
	<trip id="128533_408_0" type="pkw" depart="25496.00" from="-32038056#3" to="-28198821#4"/>
	<trip id="126197_407_0" type="pkw" depart="25496.00" from="23429231#1" to="32038051#0"/>
	<trip id="183802_431_0" type="pkw" depart="25498.00" from="130165204" to="32324544#0"/>
	<trip id="131147_409_0" type="pkw" depart="25499.00" from="23429231#1" to="32038056#0"/>
	<trip id="98410_395_0" type="pkw" depart="25500.00" from="-32038056#3" to="-28198821#4"/>
	<trip id="145219_416_0" type="pkw" depart="25500.00" from="-32038056#3" to="-28198821#4"/>
	<trip id="163672_422_0" type="pkw" depart="25501.00" from="130165204" to="32038051#0"/>
	<trip id="100304_396_0" type="pkw" depart="25502.00" from="-32038056#3" to="-28198821#4"/>
	<trip id="159287_421_0" type="pkw" depart="25503.00" from="27115123#2" to="32324544#0"/>
	<trip id="154948_420_0" type="pkw" depart="25504.00" from="27115123#2" to="32324544#0"/>
	<trip id="133024_410_0" type="pkw" depart="25506.00" from="-32038056#3" to="-28198821#4"/>
	<trip id="96309_394_0" type="pkw" depart="25507.00" from="-32038056#3" to="-28198821#4"/>
	<trip id="95692_394_0" type="pkw" depart="25510.00" from="27115123#2" to="32324544#0"/>
	<trip id="95319_394_0" type="pkw" depart="25513.00" from="130165204" to="32038051#0"/>
	<trip id="160712_421_0" type="pkw" depart="25514.00" from="27115123#2" to="32324544#0"/>
	<trip id="164286_422_0" type="pkw" depart="25516.00" from="130165204" to="32038051#0"/>
	<trip id="150442_418_0" type="pkw" depart="25518.00" from="-32038056#3" to="32038051#0"/>
	<trip id="171615_426_0" type="pkw" depart="25518.00" from="-32038056#3" to="32038051#0"/>
	<trip id="134042_411_0" type="pkw" depart="25518.00" from="130165204" to="32038051#0"/>
	<trip id="117253_404_0" type="pkw" depart="25520.00" from="-32038056#3" to="32038051#0"/>
	<trip id="172151_426_0" type="pkw" depart="25522.00" from="-32038056#3" to="-28198821#4"/>
	<trip id="99939_396_0" type="pkw" depart="25525.00" from="130165204" to="32038051#0"/>
	<trip id="148199_417_0" type="pkw" depart="25528.00" from="23429231#1" to="32038051#0"/>
	<trip id="137917_412_0" type="pkw" depart="25530.00" from="130165204" to="32038051#0"/>
	<trip id="80745_388_0" type="pkw" depart="25531.00" from="130165204" to="32038056#0"/>
	<trip id="131095_409_0" type="pkw" depart="25532.00" from="23429231#1" to="32038051#0"/>
	<trip id="144457_416_0" type="pkw" depart="25533.00" from="130165204" to="32038056#0"/>
	<trip id="113597_402_0" type="pkw" depart="25535.00" from="23429231#1" to="-28198821#4"/>
	<trip id="139907_414_0" type="pkw" depart="25535.00" from="27115123#2" to="32324544#0"/>
	<trip id="151628_419_0" type="pkw" depart="25536.00" from="-32038056#3" to="-28198821#4"/>
	<trip id="81559_389_0" type="pkw" depart="25537.00" from="-32038056#3" to="-28198821#4"/>
	<trip id="168358_425_0" type="pkw" depart="25538.00" from="-32038056#3" to="32324544#0"/>
	<trip id="153290_420_0" type="pkw" depart="25540.00" from="-32038056#3" to="32038051#0"/>
	<trip id="128339_408_0" type="pkw" depart="25542.00" from="-32038056#3" to="32038051#0"/>
	<trip id="135845_411_0" type="pkw" depart="25543.00" from="130165204" to="32038056#0"/>
	<trip id="164112_422_0" type="pkw" depart="25544.00" from="130165204" to="32038051#0"/>
	<trip id="125917_406_0" type="pkw" depart="25547.00" from="28198821#3" to="32324544#0"/>
	<trip id="137953_412_0" type="pkw" depart="25548.00" from="-32038056#3" to="-28198821#4"/>
	<trip id="125962_406_0" type="pkw" depart="25553.00" from="-32038056#3" to="-28198821#4"/>
	<trip id="171718_426_0" type="pkw" depart="25553.00" from="130165204" to="32038051#0"/>
	<trip id="151094_418_0" type="pkw" depart="25557.00" from="130165204" to="32038051#0"/>
	<trip id="119325_405_0" type="pkw" depart="25561.00" from="-32038056#3" to="32038051#0"/>
	<trip id="106037_399_0" type="pkw" depart="25562.00" from="-32038056#3" to="-28198821#4"/>
	<trip id="157011_421_0" type="pkw" depart="25563.00" from="130165204" to="32038051#0"/>
	<trip id="137007_411_0" type="pkw" depart="25564.00" from="130165204" to="32038051#0"/>
	<trip id="136669_411_0" type="pkw" depart="25566.00" from="28198821#3" to="32038051#0"/>
	<trip id="157569_421_0" type="pkw" depart="25567.00" from="130165204" to="32038051#0"/>
	<trip id="129729_409_0" type="pkw" depart="25568.00" from="130165204" to="32038056#0"/>
	<trip id="73311_385_0" type="pkw" depart="25572.00" from="27115123#2" to="32038056#0"/>
	<trip id="120597_405_0" type="pkw" depart="25572.00" from="130165204" to="32038051#0"/>
	<trip id="163382_422_0" type="pkw" depart="25574.00" from="-32038056#3" to="32038051#0"/>
	<trip id="149870_417_0" type="pkw" depart="25575.00" from="-32038056#3" to="32038051#0"/>
	<trip id="116532_404_0" type="pkw" depart="25579.00" from="27115123#2" to="32324544#0"/>
	<trip id="133712_411_0" type="pkw" depart="25580.00" from="130165204" to="32038051#0"/>
	<trip id="142911_415_0" type="pkw" depart="25582.00" from="130165204" to="32038056#0"/>
	<trip id="184119_431_0" type="pkw" depart="25582.00" from="28198821#3" to="32324544#0"/>
	<trip id="118825_405_0" type="pkw" depart="25584.00" from="130165204" to="32038051#0"/>
	<trip id="102993_397_0" type="pkw" depart="25585.00" from="27115123#2" to="32324544#0"/>
	<trip id="135158_411_0" type="pkw" depart="25587.00" from="27115123#2" to="32324544#0"/>
	<trip id="150141_417_0" type="pkw" depart="25588.00" from="-32038056#3" to="32038051#0"/>
	<trip id="129792_409_0" type="pkw" depart="25591.00" from="130165204" to="32038051#0"/>
	<trip id="154066_420_0" type="pkw" depart="25591.00" from="27115123#2" to="32038056#0"/>
	<trip id="127353_407_0" type="pkw" depart="25592.00" from="130165204" to="32038051#0"/>
	<trip id="155751_420_0" type="pkw" depart="25594.00" from="130165204" to="32038051#0"/>
	<trip id="145336_416_0" type="pkw" depart="25598.00" from="-32038056#3" to="-28198821#4"/>
	<trip id="126858_407_0" type="pkw" depart="25598.00" from="23429231#1" to="32038056#0"/>
	<trip id="130800_409_0" type="pkw" depart="25602.00" from="27115123#2" to="32324544#0"/>
	<trip id="167353_425_0" type="pkw" depart="25602.00" from="-32038056#3" to="32038051#0"/>
	<trip id="147215_416_0" type="pkw" depart="25603.00" from="28198821#3" to="32038056#0"/>
	<trip id="134481_411_0" type="pkw" depart="25603.00" from="130165204" to="32038051#0"/>
	<trip id="122916_406_0" type="pkw" depart="25605.00" from="-32038056#3" to="32038051#0"/>
	<trip id="115551_403_0" type="pkw" depart="25605.00" from="27115123#2" to="32324544#0"/>
	<trip id="123239_406_0" type="pkw" depart="25605.00" from="130165204" to="32038051#0"/>
	<trip id="172599_426_0" type="pkw" depart="25606.00" from="130165204" to="32038056#0"/>
	<trip id="152517_419_0" type="pkw" depart="25607.00" from="-32038056#3" to="32038051#0"/>
	<trip id="83429_390_0" type="pkw" depart="25608.00" from="27115123#2" to="32324544#0"/>
	<trip id="156946_421_0" type="pkw" depart="25608.00" from="130165204" to="32038056#0"/>
	<trip id="121463_406_0" type="pkw" depart="25610.00" from="28198821#3" to="32038056#0"/>
	<trip id="151757_419_0" type="pkw" depart="25611.00" from="23429231#1" to="32038056#0"/>
	<trip id="136077_411_0" type="pkw" depart="25611.00" from="27115123#2" to="32038056#0"/>
	<trip id="143002_415_0" type="pkw" depart="25613.00" from="130165204" to="32038051#0"/>
	<trip id="130601_409_0" type="pkw" depart="25614.00" from="23429231#1" to="32038051#0"/>
	<trip id="102219_396_0" type="pkw" depart="25615.00" from="-32038056#3" to="-28198821#4"/>
	<trip id="168568_425_0" type="pkw" depart="25616.00" from="130165204" to="32038051#0"/>
	<trip id="149887_417_0" type="pkw" depart="25617.00" from="-32038056#3" to="32324544#0"/>
	<trip id="136800_411_0" type="pkw" depart="25618.00" from="28198821#3" to="32324544#0"/>
	<trip id="115445_403_0" type="pkw" depart="25618.00" from="-32038056#3" to="32038051#0"/>
	<trip id="100992_396_0" type="pkw" depart="25618.00" from="27115123#2" to="32038056#0"/>
	<trip id="117915_404_0" type="pkw" depart="25619.00" from="-32038056#3" to="32038051#0"/>
	<trip id="185399_432_0" type="pkw" depart="25620.00" from="130165204" to="-28198821#4"/>
	<trip id="129962_409_0" type="pkw" depart="25622.00" from="28198821#3" to="32038051#0"/>
	<trip id="148994_417_0" type="pkw" depart="25622.00" from="-32038056#3" to="32038051#0"/>
	<trip id="139583_413_0" type="pkw" depart="25624.00" from="-32038056#3" to="32038051#0"/>
	<trip id="153446_420_0" type="pkw" depart="25624.00" from="28198821#3" to="32038056#0"/>
	<trip id="136839_411_0" type="pkw" depart="25626.00" from="23429231#1" to="32038051#0"/>
	<trip id="149660_417_0" type="pkw" depart="25627.00" from="28198821#3" to="32324544#0"/>
	<trip id="163004_422_0" type="pkw" depart="25628.00" from="23429231#1" to="-28198821#4"/>
	<trip id="144494_416_0" type="pkw" depart="25630.00" from="28198821#3" to="32324544#0"/>
	<trip id="152845_419_0" type="pkw" depart="25631.00" from="-32038056#3" to="32038051#0"/>
	<trip id="126699_407_0" type="pkw" depart="25632.00" from="28198821#3" to="32324544#0"/>
	<trip id="115499_403_0" type="pkw" depart="25633.00" from="-32038056#3" to="32038051#0"/>
	<trip id="153000_419_0" type="pkw" depart="25635.00" from="28198821#3" to="32038051#0"/>
	<trip id="159332_421_0" type="pkw" depart="25636.00" from="27115123#2" to="32038056#0"/>
	<trip id="183244_431_0" type="pkw" depart="25637.00" from="28198821#3" to="32038051#0"/>
	<trip id="145487_416_0" type="pkw" depart="25638.00" from="27115123#2" to="32038056#0"/>
	<trip id="107400_400_0" type="pkw" depart="25638.00" from="27115123#2" to="32038056#0"/>
	<trip id="111580_401_0" type="pkw" depart="25639.00" from="23429231#1" to="32038056#0"/>
	<trip id="67430_381_0" type="pkw" depart="25639.00" from="130165204" to="32324544#0"/>
	<trip id="183534_431_0" type="pkw" depart="25639.00" from="28198821#3" to="32038051#0"/>
	<trip id="183577_431_0" type="pkw" depart="25641.00" from="28198821#3" to="32038056#0"/>
	<trip id="115533_403_0" type="pkw" depart="25642.00" from="28198821#3" to="32038051#0"/>
	<trip id="145875_416_0" type="pkw" depart="25643.00" from="28198821#3" to="32038056#0"/>
	<trip id="132695_410_0" type="pkw" depart="25645.00" from="23429231#1" to="32038056#0"/>
	<trip id="162832_422_0" type="pkw" depart="25646.00" from="28198821#3" to="32038051#0"/>
	<trip id="84905_390_0" type="pkw" depart="25648.00" from="28198821#3" to="32038051#0"/>
	<trip id="145229_416_0" type="pkw" depart="25648.00" from="23429231#1" to="32038056#0"/>
	<trip id="148932_417_0" type="pkw" depart="25649.00" from="28198821#3" to="32038056#0"/>
	<trip id="160711_421_0" type="pkw" depart="25649.00" from="28198821#3" to="32038056#0"/>
	<trip id="101521_396_0" type="pkw" depart="25649.00" from="27115123#2" to="32038051#0"/>
	<trip id="115970_403_0" type="pkw" depart="25650.00" from="23429231#1" to="32038056#0"/>
	<trip id="158154_421_0" type="pkw" depart="25650.00" from="-32038056#3" to="32038051#0"/>
	<trip id="131253_409_0" type="pkw" depart="25651.00" from="27115123#2" to="32038051#0"/>
	<trip id="159995_421_0" type="pkw" depart="25652.00" from="-32038056#3" to="-28198821#4"/>
	<trip id="172050_426_0" type="pkw" depart="25653.00" from="28198821#3" to="32324544#0"/>
	<trip id="129132_408_0" type="pkw" depart="25654.00" from="27115123#2" to="32038051#0"/>
	<trip id="173616_427_0" type="pkw" depart="25656.00" from="28198821#3" to="32038056#0"/>
	<trip id="103722_397_0" type="pkw" depart="25657.00" from="27115123#2" to="32038051#0"/>
	<trip id="142600_415_0" type="pkw" depart="25658.00" from="28198821#3" to="32038056#0"/>
	<trip id="107063_400_0" type="pkw" depart="25659.00" from="23429231#1" to="32038056#0"/>
	<trip id="169028_425_0" type="pkw" depart="25660.00" from="28198821#3" to="32038056#0"/>
	<trip id="130627_409_0" type="pkw" depart="25663.00" from="-32038056#3" to="32038051#0"/>
	<trip id="123398_406_0" type="pkw" depart="25663.00" from="27115123#2" to="32038051#0"/>
	<trip id="136394_411_0" type="pkw" depart="25665.00" from="23429231#1" to="32038056#0"/>
	<trip id="164298_422_0" type="pkw" depart="25665.00" from="28198821#3" to="32038056#0"/>
	<trip id="99386_396_0" type="pkw" depart="25665.00" from="27115123#2" to="32038051#0"/>
	<trip id="122032_406_0" type="pkw" depart="25667.00" from="-32038056#3" to="32038051#0"/>
	<trip id="145192_416_0" type="pkw" depart="25667.00" from="27115123#2" to="32038051#0"/>
	<trip id="161200_421_0" type="pkw" depart="25668.00" from="28198821#3" to="32038056#0"/>
	<trip id="140984_414_0" type="pkw" depart="25668.00" from="23429231#1" to="32038051#0"/>
	<trip id="159733_421_0" type="pkw" depart="25668.00" from="27115123#2" to="32038051#0"/>
	<trip id="156748_421_0" type="pkw" depart="25669.00" from="-32038056#3" to="32324544#0"/>