<routes>

    <flow id="0" from="gneE47" to="gneE46" begin="0" end="0" number="0"/>
    <flow id="1" from="gneE81" to="gneE82" begin="0" end="0" number="1"/>

</routes>
