<?xml version="1.0" encoding="UTF-8"?>

<!-- generated on Mon Oct 15 14:41:46 2018 by SUMO netconvert Version 0.32.0
<?xml version="1.0" encoding="UTF-8"?>

<configuration xmlns:xsi="http://www.w3.org/2001/XMLSchema-instance" xsi:noNamespaceSchemaLocation="http://sumo.dlr.de/xsd/netconvertConfiguration.xsd">

    <input>
        <node-files value="teste.nod.xml"/>
        <edge-files value="teste.edg.xml"/>
    </input>

    <output>
        <output-file value="teste.net.xml"/>
    </output>

</configuration>
-->

<net version="0.27" xmlns:xsi="http://www.w3.org/2001/XMLSchema-instance" xsi:noNamespaceSchemaLocation="http://sumo.dlr.de/xsd/net_file.xsd">

    <location netOffset="175.00,130.00" convBoundary="0.00,0.00,350.00,567.50" origBoundary="-175.00,-130.00,175.00,437.50" projParameter="!"/>

    <edge id=":10_0" function="internal">
        <lane id=":10_0_0" index="0" speed="13.90" length="0.24" shape="104.24,301.91 103.90,301.81"/>
        <lane id=":10_0_1" index="1" speed="13.90" length="0.24" shape="105.07,298.72 104.96,298.68"/>
    </edge>
    <edge id=":101_0" function="internal">
        <lane id=":101_0_0" index="0" speed="13.90" length="0.29" shape="351.32,498.69 351.27,498.82 351.24,498.90 351.21,498.98 351.16,499.10"/>
        <lane id=":101_0_1" index="1" speed="13.90" length="0.29" shape="348.20,497.61 348.18,497.65 348.17,497.68 348.16,497.71 348.15,497.75"/>
    </edge>
    <edge id=":102_0" function="internal">
        <lane id=":102_0_0" index="0" speed="13.90" length="0.22" shape="340.60,516.51 340.39,516.76"/>
        <lane id=":102_0_1" index="1" speed="13.90" length="0.22" shape="337.99,514.49 337.92,514.57"/>
    </edge>
    <edge id=":103_0" function="internal">
        <lane id=":103_0_0" index="0" speed="13.90" length="0.18" shape="323.58,532.49 323.37,532.65"/>
        <lane id=":103_0_1" index="1" speed="13.90" length="0.18" shape="321.53,529.90 321.46,529.96"/>
    </edge>
    <edge id=":104_0" function="internal">
        <lane id=":104_0_0" index="0" speed="13.90" length="0.15" shape="301.04,546.25 300.87,546.34"/>
        <lane id=":104_0_1" index="1" speed="13.90" length="0.15" shape="299.51,543.33 299.45,543.36"/>
    </edge>
    <edge id=":105_0" function="internal">
        <lane id=":105_0_0" index="0" speed="13.90" length="0.13" shape="273.86,557.42 273.72,557.47"/>
        <lane id=":105_0_1" index="1" speed="13.90" length="0.13" shape="272.77,554.31 272.72,554.32"/>
    </edge>
    <edge id=":106_0" function="internal">
        <lane id=":106_0_0" index="0" speed="13.90" length="0.12" shape="243.04,565.67 242.91,565.70"/>
        <lane id=":106_0_1" index="1" speed="13.90" length="0.12" shape="242.33,562.45 242.28,562.46"/>
    </edge>
    <edge id=":107_0" function="internal">
        <lane id=":107_0_0" index="0" speed="13.90" length="0.11" shape="209.69,570.74 209.57,570.75"/>
        <lane id=":107_0_1" index="1" speed="13.90" length="0.11" shape="209.32,567.46 209.28,567.46"/>
    </edge>
    <edge id=":108_0" function="internal">
        <lane id=":108_0_0" index="0" speed="13.90" length="0.11" shape="175.06,572.45 174.94,572.45"/>
        <lane id=":108_0_1" index="1" speed="13.90" length="0.11" shape="175.02,569.15 174.98,569.15"/>
    </edge>
    <edge id=":109_0" function="internal">
        <lane id=":109_0_0" index="0" speed="13.90" length="0.11" shape="140.43,570.75 140.31,570.74"/>
        <lane id=":109_0_1" index="1" speed="13.90" length="0.11" shape="140.72,567.46 140.68,567.46"/>
    </edge>
    <edge id=":11_0" function="internal">
        <lane id=":11_0_0" index="0" speed="13.90" length="0.20" shape="84.25,292.86 83.99,292.70"/>
        <lane id=":11_0_1" index="1" speed="13.90" length="0.20" shape="85.90,290.01 85.82,289.95"/>
    </edge>
    <edge id=":110_0" function="internal">
        <lane id=":110_0_0" index="0" speed="13.90" length="0.12" shape="107.09,565.70 106.96,565.67"/>
        <lane id=":110_0_1" index="1" speed="13.90" length="0.12" shape="107.72,562.46 107.67,562.45"/>
    </edge>
    <edge id=":111_0" function="internal">
        <lane id=":111_0_0" index="0" speed="13.90" length="0.13" shape="76.28,557.47 76.14,557.42"/>
        <lane id=":111_0_1" index="1" speed="13.90" length="0.13" shape="77.28,554.32 77.23,554.31"/>
    </edge>
    <edge id=":112_0" function="internal">
        <lane id=":112_0_0" index="0" speed="13.90" length="0.15" shape="49.13,546.34 48.96,546.25"/>
        <lane id=":112_0_1" index="1" speed="13.90" length="0.15" shape="50.55,543.36 50.49,543.33"/>
    </edge>
    <edge id=":113_0" function="internal">
        <lane id=":113_0_0" index="0" speed="13.90" length="0.18" shape="26.63,532.65 26.42,532.49"/>
        <lane id=":113_0_1" index="1" speed="13.90" length="0.18" shape="28.54,529.96 28.47,529.90"/>
    </edge>
    <edge id=":114_0" function="internal">
        <lane id=":114_0_0" index="0" speed="13.90" length="0.22" shape="9.61,516.76 9.40,516.51"/>
        <lane id=":114_0_1" index="1" speed="13.90" length="0.22" shape="12.08,514.57 12.01,514.49"/>
    </edge>
    <edge id=":115_0" function="internal">
        <lane id=":115_0_0" index="0" speed="13.90" length="0.29" shape="-1.16,499.10 -1.21,498.98 -1.24,498.90 -1.27,498.82 -1.32,498.69"/>
        <lane id=":115_0_1" index="1" speed="13.90" length="0.29" shape="1.85,497.75 1.84,497.71 1.83,497.68 1.82,497.65 1.80,497.61"/>
    </edge>
    <edge id=":116_0" function="internal">
        <lane id=":116_0_0" index="0" speed="13.90" length="0.32" shape="-4.94,480.24 -4.95,480.10 -4.95,480.00 -4.95,479.90 -4.94,479.76"/>
        <lane id=":116_0_1" index="1" speed="13.90" length="0.32" shape="-1.65,480.08 -1.65,480.03 -1.65,480.00 -1.65,479.97 -1.65,479.92"/>
    </edge>
    <edge id=":117_0" function="internal">
        <lane id=":117_0_0" index="0" speed="13.90" length="0.29" shape="-1.32,461.31 -1.27,461.18 -1.24,461.10 -1.21,461.02 -1.16,460.90"/>
        <lane id=":117_0_1" index="1" speed="13.90" length="0.29" shape="1.80,462.39 1.82,462.35 1.83,462.32 1.84,462.29 1.85,462.25"/>
    </edge>
    <edge id=":118_0" function="internal">
        <lane id=":118_0_0" index="0" speed="13.90" length="0.22" shape="9.40,443.49 9.61,443.24"/>
        <lane id=":118_0_1" index="1" speed="13.90" length="0.22" shape="12.01,445.51 12.08,445.43"/>
    </edge>
    <edge id=":119_0" function="internal">
        <lane id=":119_0_0" index="0" speed="13.90" length="0.18" shape="26.42,427.51 26.63,427.35"/>
        <lane id=":119_0_1" index="1" speed="13.90" length="0.18" shape="28.47,430.10 28.54,430.04"/>
    </edge>
    <edge id=":12_0" function="internal">
        <lane id=":12_0_0" index="0" speed="13.90" length="0.18" shape="66.03,278.31 65.84,278.12"/>
        <lane id=":12_0_1" index="1" speed="13.90" length="0.18" shape="68.30,275.92 68.24,275.85"/>
    </edge>
    <edge id=":120_0" function="internal">
        <lane id=":120_0_0" index="0" speed="13.90" length="0.15" shape="48.96,413.75 49.13,413.66"/>
        <lane id=":120_0_1" index="1" speed="13.90" length="0.15" shape="50.49,416.67 50.55,416.64"/>
    </edge>
    <edge id=":121_0" function="internal">
        <lane id=":121_0_0" index="0" speed="13.90" length="0.13" shape="76.14,402.58 76.28,402.53"/>
        <lane id=":121_0_1" index="1" speed="13.90" length="0.13" shape="77.23,405.69 77.28,405.68"/>
    </edge>
    <edge id=":122_0" function="internal">
        <lane id=":122_0_0" index="0" speed="13.90" length="0.12" shape="106.96,394.33 107.09,394.30"/>
        <lane id=":122_0_1" index="1" speed="13.90" length="0.12" shape="107.67,397.55 107.72,397.54"/>
    </edge>
    <edge id=":123_0" function="internal">
        <lane id=":123_0_0" index="0" speed="13.90" length="0.11" shape="140.31,389.26 140.43,389.25"/>
        <lane id=":123_0_1" index="1" speed="13.90" length="0.11" shape="140.68,392.54 140.72,392.54"/>
    </edge>
    <edge id=":124_0" function="internal">
        <lane id=":124_0_0" index="0" speed="13.90" length="0.11" shape="174.94,387.55 175.06,387.55"/>
        <lane id=":124_0_1" index="1" speed="13.90" length="0.11" shape="174.98,390.85 175.02,390.85"/>
    </edge>
    <edge id=":125_0" function="internal">
        <lane id=":125_0_0" index="0" speed="13.90" length="0.11" shape="209.57,389.25 209.69,389.26"/>
        <lane id=":125_0_1" index="1" speed="13.90" length="0.11" shape="209.28,392.54 209.32,392.54"/>
    </edge>
    <edge id=":126_0" function="internal">
        <lane id=":126_0_0" index="0" speed="13.90" length="0.12" shape="242.91,394.30 243.04,394.33"/>
        <lane id=":126_0_1" index="1" speed="13.90" length="0.12" shape="242.28,397.54 242.33,397.55"/>
    </edge>
    <edge id=":127_0" function="internal">
        <lane id=":127_0_0" index="0" speed="13.90" length="0.13" shape="273.72,402.53 273.86,402.58"/>
        <lane id=":127_0_1" index="1" speed="13.90" length="0.13" shape="272.72,405.68 272.77,405.69"/>
    </edge>
    <edge id=":128_0" function="internal">
        <lane id=":128_0_0" index="0" speed="13.90" length="0.15" shape="300.87,413.66 301.04,413.75"/>
        <lane id=":128_0_1" index="1" speed="13.90" length="0.15" shape="299.45,416.64 299.51,416.67"/>
    </edge>
    <edge id=":129_0" function="internal">
        <lane id=":129_0_0" index="0" speed="13.90" length="0.18" shape="323.37,427.35 323.58,427.51"/>
        <lane id=":129_0_1" index="1" speed="13.90" length="0.18" shape="321.46,430.04 321.53,430.10"/>
    </edge>
    <edge id=":13_0" function="internal">
        <lane id=":13_0_0" index="0" speed="13.90" length="0.16" shape="50.24,258.91 50.11,258.72"/>
        <lane id=":13_0_1" index="1" speed="13.90" length="0.16" shape="52.94,257.02 52.90,256.95"/>
    </edge>
    <edge id=":130_0" function="internal">
        <lane id=":130_0_0" index="0" speed="13.90" length="0.22" shape="340.39,443.24 340.60,443.49"/>
        <lane id=":130_0_1" index="1" speed="13.90" length="0.22" shape="337.92,445.43 337.99,445.51"/>
    </edge>
    <edge id=":131_0" function="internal">
        <lane id=":131_0_0" index="0" speed="13.90" length="0.29" shape="351.16,460.90 351.21,461.02 351.24,461.10 351.27,461.18 351.32,461.31"/>
        <lane id=":131_0_1" index="1" speed="13.90" length="0.29" shape="348.15,462.25 348.16,462.29 348.17,462.32 348.18,462.35 348.20,462.39"/>
    </edge>
    <edge id=":14_0" function="internal">
        <lane id=":14_0_0" index="0" speed="13.90" length="0.15" shape="37.37,235.45 37.29,235.26"/>
        <lane id=":14_0_1" index="1" speed="13.90" length="0.15" shape="40.36,234.04 40.33,233.98"/>
    </edge>
    <edge id=":15_0" function="internal">
        <lane id=":15_0_0" index="0" speed="13.90" length="0.14" shape="27.86,208.80 27.81,208.63"/>
        <lane id=":15_0_1" index="1" speed="13.90" length="0.14" shape="31.03,207.87 31.01,207.81"/>
    </edge>
    <edge id=":16_0" function="internal">
        <lane id=":16_0_0" index="0" speed="13.90" length="0.13" shape="22.02,180.00 22.00,179.83"/>
        <lane id=":16_0_1" index="1" speed="13.90" length="0.13" shape="25.29,179.51 25.28,179.45"/>
    </edge>
    <edge id=":17_0" function="internal">
        <lane id=":17_0_0" index="0" speed="13.90" length="0.13" shape="20.05,150.08 20.05,149.92"/>
        <lane id=":17_0_1" index="1" speed="13.90" length="0.13" shape="23.35,150.03 23.35,149.97"/>
    </edge>
    <edge id=":18_0" function="internal">
        <lane id=":18_0_0" index="0" speed="13.90" length="0.13" shape="22.00,120.17 22.02,120.00"/>
        <lane id=":18_0_1" index="1" speed="13.90" length="0.13" shape="25.28,120.55 25.29,120.49"/>
    </edge>
    <edge id=":19_0" function="internal">
        <lane id=":19_0_0" index="0" speed="13.90" length="0.14" shape="27.81,91.37 27.86,91.20"/>
        <lane id=":19_0_1" index="1" speed="13.90" length="0.14" shape="31.01,92.19 31.03,92.13"/>
    </edge>
    <edge id=":2_0" function="internal">
        <lane id=":2_0_0" index="0" speed="13.90" length="0.13" shape="228.00,179.83 227.98,180.00"/>
        <lane id=":2_0_1" index="1" speed="13.90" length="0.13" shape="224.72,179.45 224.71,179.51"/>
    </edge>
    <edge id=":20_0" function="internal">
        <lane id=":20_0_0" index="0" speed="13.90" length="0.15" shape="37.29,64.74 37.37,64.55"/>
        <lane id=":20_0_1" index="1" speed="13.90" length="0.15" shape="40.33,66.02 40.36,65.96"/>
    </edge>
    <edge id=":21_0" function="internal">
        <lane id=":21_0_0" index="0" speed="13.90" length="0.16" shape="50.11,41.28 50.24,41.09"/>
        <lane id=":21_0_1" index="1" speed="13.90" length="0.16" shape="52.90,43.05 52.94,42.98"/>
    </edge>
    <edge id=":22_0" function="internal">
        <lane id=":22_0_0" index="0" speed="13.90" length="0.18" shape="65.84,21.88 66.03,21.69"/>
        <lane id=":22_0_1" index="1" speed="13.90" length="0.18" shape="68.24,24.15 68.30,24.08"/>
    </edge>
    <edge id=":23_0" function="internal">
        <lane id=":23_0_0" index="0" speed="13.90" length="0.20" shape="83.99,7.30 84.25,7.14"/>
        <lane id=":23_0_1" index="1" speed="13.90" length="0.20" shape="85.82,10.05 85.90,9.99"/>
    </edge>
    <edge id=":24_0" function="internal">
        <lane id=":24_0_0" index="0" speed="13.90" length="0.24" shape="103.90,-1.81 104.24,-1.91"/>
        <lane id=":24_0_1" index="1" speed="13.90" length="0.24" shape="104.96,1.32 105.07,1.28"/>
    </edge>
    <edge id=":25_0" function="internal">
        <lane id=":25_0_0" index="0" speed="13.90" length="0.24" shape="124.82,-4.95 125.18,-4.95"/>
        <lane id=":25_0_1" index="1" speed="13.90" length="0.24" shape="124.94,-1.65 125.06,-1.65"/>
    </edge>
    <edge id=":26_0" function="internal">
        <lane id=":26_0_0" index="0" speed="13.90" length="0.24" shape="145.76,-1.91 146.10,-1.81"/>
        <lane id=":26_0_1" index="1" speed="13.90" length="0.24" shape="144.93,1.28 145.04,1.32"/>
    </edge>
    <edge id=":27_0" function="internal">
        <lane id=":27_0_0" index="0" speed="13.90" length="0.20" shape="165.75,7.14 166.01,7.30"/>
        <lane id=":27_0_1" index="1" speed="13.90" length="0.20" shape="164.10,9.99 164.18,10.05"/>
    </edge>
    <edge id=":28_0" function="internal">
        <lane id=":28_0_0" index="0" speed="13.90" length="0.18" shape="183.97,21.69 184.16,21.88"/>
        <lane id=":28_0_1" index="1" speed="13.90" length="0.18" shape="181.70,24.08 181.76,24.15"/>
    </edge>
    <edge id=":29_0" function="internal">
        <lane id=":29_0_0" index="0" speed="13.90" length="0.16" shape="199.76,41.09 199.89,41.28"/>
        <lane id=":29_0_1" index="1" speed="13.90" length="0.16" shape="197.06,42.98 197.10,43.05"/>
    </edge>
    <edge id=":3_0" function="internal">
        <lane id=":3_0_0" index="0" speed="13.90" length="0.14" shape="222.19,208.63 222.14,208.80"/>
        <lane id=":3_0_1" index="1" speed="13.90" length="0.14" shape="218.99,207.81 218.97,207.87"/>
    </edge>
    <edge id=":30_0" function="internal">
        <lane id=":30_0_0" index="0" speed="13.90" length="0.15" shape="212.63,64.55 212.71,64.74"/>
        <lane id=":30_0_1" index="1" speed="13.90" length="0.15" shape="209.64,65.96 209.67,66.02"/>
    </edge>
    <edge id=":31_0" function="internal">
        <lane id=":31_0_0" index="0" speed="13.90" length="0.14" shape="222.14,91.20 222.19,91.37"/>
        <lane id=":31_0_1" index="1" speed="13.90" length="0.14" shape="218.97,92.13 218.99,92.19"/>
    </edge>
    <edge id=":32_0" function="internal">
        <lane id=":32_0_0" index="0" speed="13.90" length="0.13" shape="227.98,120.00 228.00,120.17"/>
        <lane id=":32_0_1" index="1" speed="13.90" length="0.13" shape="224.71,120.49 224.72,120.55"/>
    </edge>
    <edge id=":35_0" function="internal">
        <lane id=":35_0_0" index="0" speed="13.90" length="0.13" shape="328.00,179.83 327.98,180.00"/>
        <lane id=":35_0_1" index="1" speed="13.90" length="0.13" shape="324.72,179.45 324.71,179.51"/>
    </edge>
    <edge id=":36_0" function="internal">
        <lane id=":36_0_0" index="0" speed="13.90" length="0.14" shape="322.19,208.63 322.14,208.80"/>
        <lane id=":36_0_1" index="1" speed="13.90" length="0.14" shape="318.99,207.81 318.97,207.87"/>
    </edge>
    <edge id=":37_0" function="internal">
        <lane id=":37_0_0" index="0" speed="13.90" length="0.15" shape="312.71,235.26 312.63,235.45"/>
        <lane id=":37_0_1" index="1" speed="13.90" length="0.15" shape="309.67,233.98 309.64,234.04"/>
    </edge>
    <edge id=":38_0" function="internal">
        <lane id=":38_0_0" index="0" speed="13.90" length="0.16" shape="299.89,258.72 299.76,258.91"/>
        <lane id=":38_0_1" index="1" speed="13.90" length="0.16" shape="297.10,256.95 297.06,257.02"/>
    </edge>
    <edge id=":39_0" function="internal">
        <lane id=":39_0_0" index="0" speed="13.90" length="0.18" shape="284.16,278.12 283.97,278.31"/>
        <lane id=":39_0_1" index="1" speed="13.90" length="0.18" shape="281.76,275.85 281.70,275.92"/>
    </edge>
    <edge id=":4_0" function="internal">
        <lane id=":4_0_0" index="0" speed="13.90" length="0.15" shape="212.71,235.26 212.63,235.45"/>
        <lane id=":4_0_1" index="1" speed="13.90" length="0.15" shape="209.67,233.98 209.64,234.04"/>
    </edge>
    <edge id=":40_0" function="internal">
        <lane id=":40_0_0" index="0" speed="13.90" length="0.20" shape="266.01,292.70 265.75,292.86"/>
        <lane id=":40_0_1" index="1" speed="13.90" length="0.20" shape="264.18,289.95 264.10,290.01"/>
    </edge>
    <edge id=":41_0" function="internal">
        <lane id=":41_0_0" index="0" speed="13.90" length="0.24" shape="246.10,301.81 245.76,301.91"/>
        <lane id=":41_0_1" index="1" speed="13.90" length="0.24" shape="245.04,298.68 244.93,298.72"/>
    </edge>
    <edge id=":42_0" function="internal">
        <lane id=":42_0_0" index="0" speed="13.90" length="0.24" shape="225.18,304.95 224.82,304.95"/>
        <lane id=":42_0_1" index="1" speed="13.90" length="0.24" shape="225.06,301.65 224.94,301.65"/>
    </edge>
    <edge id=":43_0" function="internal">
        <lane id=":43_0_0" index="0" speed="13.90" length="0.24" shape="204.24,301.91 203.90,301.81"/>
        <lane id=":43_0_1" index="1" speed="13.90" length="0.24" shape="205.07,298.72 204.96,298.68"/>
    </edge>
    <edge id=":44_0" function="internal">
        <lane id=":44_0_0" index="0" speed="13.90" length="0.20" shape="184.25,292.86 183.99,292.70"/>
        <lane id=":44_0_1" index="1" speed="13.90" length="0.20" shape="185.90,290.01 185.82,289.95"/>
    </edge>
    <edge id=":45_0" function="internal">
        <lane id=":45_0_0" index="0" speed="13.90" length="0.18" shape="166.03,278.31 165.84,278.12"/>
        <lane id=":45_0_1" index="1" speed="13.90" length="0.18" shape="168.30,275.92 168.24,275.85"/>
    </edge>
    <edge id=":46_0" function="internal">
        <lane id=":46_0_0" index="0" speed="13.90" length="0.16" shape="150.24,258.91 150.11,258.72"/>
        <lane id=":46_0_1" index="1" speed="13.90" length="0.16" shape="152.94,257.02 152.90,256.95"/>
    </edge>
    <edge id=":47_0" function="internal">
        <lane id=":47_0_0" index="0" speed="13.90" length="0.15" shape="137.37,235.45 137.29,235.26"/>
        <lane id=":47_0_1" index="1" speed="13.90" length="0.15" shape="140.36,234.04 140.33,233.98"/>
    </edge>
    <edge id=":48_0" function="internal">
        <lane id=":48_0_0" index="0" speed="13.90" length="0.14" shape="127.86,208.80 127.81,208.63"/>
        <lane id=":48_0_1" index="1" speed="13.90" length="0.14" shape="131.03,207.87 131.01,207.81"/>
    </edge>
    <edge id=":49_0" function="internal">
        <lane id=":49_0_0" index="0" speed="13.90" length="0.13" shape="122.02,180.00 122.00,179.83"/>
        <lane id=":49_0_1" index="1" speed="13.90" length="0.13" shape="125.29,179.51 125.28,179.45"/>
    </edge>
    <edge id=":5_0" function="internal">
        <lane id=":5_0_0" index="0" speed="13.90" length="0.16" shape="199.89,258.72 199.76,258.91"/>
        <lane id=":5_0_1" index="1" speed="13.90" length="0.16" shape="197.10,256.95 197.06,257.02"/>
    </edge>
    <edge id=":50_0" function="internal">
        <lane id=":50_0_0" index="0" speed="13.90" length="0.13" shape="120.05,150.08 120.05,149.92"/>
        <lane id=":50_0_1" index="1" speed="13.90" length="0.13" shape="123.35,150.03 123.35,149.97"/>
    </edge>
    <edge id=":51_0" function="internal">
        <lane id=":51_0_0" index="0" speed="13.90" length="0.13" shape="122.00,120.17 122.02,120.00"/>
        <lane id=":51_0_1" index="1" speed="13.90" length="0.13" shape="125.28,120.55 125.29,120.49"/>
    </edge>
    <edge id=":52_0" function="internal">
        <lane id=":52_0_0" index="0" speed="13.90" length="0.14" shape="127.81,91.37 127.86,91.20"/>
        <lane id=":52_0_1" index="1" speed="13.90" length="0.14" shape="131.01,92.19 131.03,92.13"/>
    </edge>
    <edge id=":53_0" function="internal">
        <lane id=":53_0_0" index="0" speed="13.90" length="0.15" shape="137.29,64.74 137.37,64.55"/>
        <lane id=":53_0_1" index="1" speed="13.90" length="0.15" shape="140.33,66.02 140.36,65.96"/>
    </edge>
    <edge id=":54_0" function="internal">
        <lane id=":54_0_0" index="0" speed="13.90" length="0.16" shape="150.11,41.28 150.24,41.09"/>
        <lane id=":54_0_1" index="1" speed="13.90" length="0.16" shape="152.90,43.05 152.94,42.98"/>
    </edge>
    <edge id=":55_0" function="internal">
        <lane id=":55_0_0" index="0" speed="13.90" length="0.18" shape="165.84,21.88 166.03,21.69"/>
        <lane id=":55_0_1" index="1" speed="13.90" length="0.18" shape="168.24,24.15 168.30,24.08"/>
    </edge>
    <edge id=":56_0" function="internal">
        <lane id=":56_0_0" index="0" speed="13.90" length="0.20" shape="183.99,7.30 184.25,7.14"/>
        <lane id=":56_0_1" index="1" speed="13.90" length="0.20" shape="185.82,10.05 185.90,9.99"/>
    </edge>
    <edge id=":57_0" function="internal">
        <lane id=":57_0_0" index="0" speed="13.90" length="0.24" shape="203.90,-1.81 204.24,-1.91"/>
        <lane id=":57_0_1" index="1" speed="13.90" length="0.24" shape="204.96,1.32 205.07,1.28"/>
    </edge>
    <edge id=":58_0" function="internal">
        <lane id=":58_0_0" index="0" speed="13.90" length="0.24" shape="224.82,-4.95 225.18,-4.95"/>
        <lane id=":58_0_1" index="1" speed="13.90" length="0.24" shape="224.94,-1.65 225.06,-1.65"/>
    </edge>
    <edge id=":59_0" function="internal">
        <lane id=":59_0_0" index="0" speed="13.90" length="0.24" shape="245.76,-1.91 246.10,-1.81"/>
        <lane id=":59_0_1" index="1" speed="13.90" length="0.24" shape="244.93,1.28 245.04,1.32"/>
    </edge>
    <edge id=":6_0" function="internal">
        <lane id=":6_0_0" index="0" speed="13.90" length="0.18" shape="184.16,278.12 183.97,278.31"/>
        <lane id=":6_0_1" index="1" speed="13.90" length="0.18" shape="181.76,275.85 181.70,275.92"/>
    </edge>
    <edge id=":60_0" function="internal">
        <lane id=":60_0_0" index="0" speed="13.90" length="0.20" shape="265.75,7.14 266.01,7.30"/>
        <lane id=":60_0_1" index="1" speed="13.90" length="0.20" shape="264.10,9.99 264.18,10.05"/>
    </edge>
    <edge id=":61_0" function="internal">
        <lane id=":61_0_0" index="0" speed="13.90" length="0.18" shape="283.97,21.69 284.16,21.88"/>
        <lane id=":61_0_1" index="1" speed="13.90" length="0.18" shape="281.70,24.08 281.76,24.15"/>
    </edge>
    <edge id=":62_0" function="internal">
        <lane id=":62_0_0" index="0" speed="13.90" length="0.16" shape="299.76,41.09 299.89,41.28"/>
        <lane id=":62_0_1" index="1" speed="13.90" length="0.16" shape="297.06,42.98 297.10,43.05"/>
    </edge>
    <edge id=":63_0" function="internal">
        <lane id=":63_0_0" index="0" speed="13.90" length="0.15" shape="312.63,64.55 312.71,64.74"/>
        <lane id=":63_0_1" index="1" speed="13.90" length="0.15" shape="309.64,65.96 309.67,66.02"/>
    </edge>
    <edge id=":64_0" function="internal">
        <lane id=":64_0_0" index="0" speed="13.90" length="0.14" shape="322.14,91.20 322.19,91.37"/>
        <lane id=":64_0_1" index="1" speed="13.90" length="0.14" shape="318.97,92.13 318.99,92.19"/>
    </edge>
    <edge id=":65_0" function="internal">
        <lane id=":65_0_0" index="0" speed="13.90" length="0.13" shape="327.98,120.00 328.00,120.17"/>
        <lane id=":65_0_1" index="1" speed="13.90" length="0.13" shape="324.71,120.49 324.72,120.55"/>
    </edge>
    <edge id=":68_0" function="internal">
        <lane id=":68_0_0" index="0" speed="13.90" length="0.17" shape="327.00,360.11 326.95,360.35"/>
        <lane id=":68_0_1" index="1" speed="13.90" length="0.17" shape="323.75,359.54 323.73,359.62"/>
    </edge>
    <edge id=":69_0" function="internal">
        <lane id=":69_0_0" index="0" speed="13.90" length="0.17" shape="318.20,389.18 318.11,389.40"/>
        <lane id=":69_0_1" index="1" speed="13.90" length="0.17" shape="315.12,387.99 315.09,388.07"/>
    </edge>
    <edge id=":7_0" function="internal">
        <lane id=":7_0_0" index="0" speed="13.90" length="0.20" shape="166.01,292.70 165.75,292.86"/>
        <lane id=":7_0_1" index="1" speed="13.90" length="0.20" shape="164.18,289.95 164.10,290.01"/>
    </edge>
    <edge id=":70_0" function="internal">
        <lane id=":70_0_0" index="0" speed="13.90" length="0.17" shape="303.90,415.99 303.76,416.19"/>
        <lane id=":70_0_1" index="1" speed="13.90" length="0.17" shape="301.11,414.22 301.07,414.29"/>
    </edge>
    <edge id=":71_0" function="internal">
        <lane id=":71_0_0" index="0" speed="13.90" length="0.18" shape="284.66,439.48 284.48,439.66"/>
        <lane id=":71_0_1" index="1" speed="13.90" length="0.18" shape="282.27,437.21 282.21,437.27"/>
    </edge>
    <edge id=":72_0" function="internal">
        <lane id=":72_0_0" index="0" speed="13.90" length="0.17" shape="261.19,458.76 260.99,458.90"/>
        <lane id=":72_0_1" index="1" speed="13.90" length="0.17" shape="259.29,456.07 259.22,456.11"/>
    </edge>
    <edge id=":73_0" function="internal">
        <lane id=":73_0_0" index="0" speed="13.90" length="0.17" shape="234.40,473.11 234.18,473.20"/>
        <lane id=":73_0_1" index="1" speed="13.90" length="0.17" shape="233.07,470.09 232.99,470.12"/>
    </edge>
    <edge id=":74_0" function="internal">
        <lane id=":74_0_0" index="0" speed="13.90" length="0.17" shape="205.35,481.95 205.11,482.00"/>
        <lane id=":74_0_1" index="1" speed="13.90" length="0.17" shape="204.62,478.73 204.54,478.75"/>
    </edge>
    <edge id=":75_0" function="internal">
        <lane id=":75_0_0" index="0" speed="13.90" length="0.17" shape="175.12,484.95 174.88,484.95"/>
        <lane id=":75_0_1" index="1" speed="13.90" length="0.17" shape="175.04,481.65 174.96,481.65"/>
    </edge>
    <edge id=":76_0" function="internal">
        <lane id=":76_0_0" index="0" speed="13.90" length="0.17" shape="144.89,482.00 144.65,481.95"/>
        <lane id=":76_0_1" index="1" speed="13.90" length="0.17" shape="145.46,478.75 145.38,478.73"/>
    </edge>
    <edge id=":77_0" function="internal">
        <lane id=":77_0_0" index="0" speed="13.90" length="0.17" shape="115.82,473.20 115.60,473.11"/>
        <lane id=":77_0_1" index="1" speed="13.90" length="0.17" shape="117.01,470.12 116.93,470.09"/>
    </edge>
    <edge id=":78_0" function="internal">
        <lane id=":78_0_0" index="0" speed="13.90" length="0.17" shape="89.01,458.90 88.81,458.76"/>
        <lane id=":78_0_1" index="1" speed="13.90" length="0.17" shape="90.78,456.11 90.71,456.07"/>
    </edge>
    <edge id=":79_0" function="internal">
        <lane id=":79_0_0" index="0" speed="13.90" length="0.18" shape="65.52,439.66 65.34,439.48"/>
        <lane id=":79_0_1" index="1" speed="13.90" length="0.18" shape="67.79,437.27 67.73,437.21"/>
    </edge>
    <edge id=":8_0" function="internal">
        <lane id=":8_0_0" index="0" speed="13.90" length="0.24" shape="146.10,301.81 145.76,301.91"/>
        <lane id=":8_0_1" index="1" speed="13.90" length="0.24" shape="145.04,298.68 144.93,298.72"/>
    </edge>
    <edge id=":80_0" function="internal">
        <lane id=":80_0_0" index="0" speed="13.90" length="0.17" shape="46.24,416.19 46.10,415.99"/>
        <lane id=":80_0_1" index="1" speed="13.90" length="0.17" shape="48.93,414.29 48.89,414.22"/>
    </edge>
    <edge id=":81_0" function="internal">
        <lane id=":81_0_0" index="0" speed="13.90" length="0.17" shape="31.89,389.40 31.80,389.18"/>
        <lane id=":81_0_1" index="1" speed="13.90" length="0.17" shape="34.91,388.07 34.88,387.99"/>
    </edge>
    <edge id=":82_0" function="internal">
        <lane id=":82_0_0" index="0" speed="13.90" length="0.17" shape="23.05,360.35 23.00,360.11"/>
        <lane id=":82_0_1" index="1" speed="13.90" length="0.17" shape="26.27,359.62 26.25,359.54"/>
    </edge>
    <edge id=":83_0" function="internal">
        <lane id=":83_0_0" index="0" speed="13.90" length="0.17" shape="20.05,330.12 20.05,329.88"/>
        <lane id=":83_0_1" index="1" speed="13.90" length="0.17" shape="23.35,330.04 23.35,329.96"/>
    </edge>
    <edge id=":84_0" function="internal">
        <lane id=":84_0_0" index="0" speed="13.90" length="0.17" shape="23.00,299.89 23.05,299.65"/>
        <lane id=":84_0_1" index="1" speed="13.90" length="0.17" shape="26.25,300.46 26.27,300.38"/>
    </edge>
    <edge id=":85_0" function="internal">
        <lane id=":85_0_0" index="0" speed="13.90" length="0.17" shape="31.80,270.82 31.89,270.60"/>
        <lane id=":85_0_1" index="1" speed="13.90" length="0.17" shape="34.88,272.01 34.91,271.93"/>
    </edge>
    <edge id=":86_0" function="internal">
        <lane id=":86_0_0" index="0" speed="13.90" length="0.17" shape="46.10,244.01 46.24,243.81"/>
        <lane id=":86_0_1" index="1" speed="13.90" length="0.17" shape="48.89,245.78 48.93,245.71"/>
    </edge>
    <edge id=":87_0" function="internal">