<nodes>
<node id="1" x="50.0" y="20.0"/>
<node id="2" x="48.07852804032305" y="49.26354830241924"/>
<node id="3" x="42.38795325112868" y="77.40251485476347"/>
<node id="4" x="33.14696123025452" y="103.33553495294032"/>
<node id="5" x="20.710678118654755" y="126.06601717798212"/>
<node id="6" x="5.557023301960228" y="144.7204418453818"/>
<node id="7" x="-11.731656763491017" y="158.581929876693"/>
<node id="8" x="-30.490967798387167" y="167.11779206048456"/>
<node id="9" x="-49.99999999999999" y="170.0"/>
<node id="10" x="-69.50903220161283" y="167.11779206048456"/>
<node id="11" x="-88.26834323650897" y="158.581929876693"/>
<node id="12" x="-105.55702330196019" y="144.72044184538183"/>
<node id="13" x="-120.71067811865474" y="126.06601717798215"/>
<node id="14" x="-133.14696123025453" y="103.33553495294032"/>
<node id="15" x="-142.3879532511287" y="77.4025148547635"/>
<node id="16" x="-148.07852804032305" y="49.263548302419295"/>
<node id="17" x="-150.0" y="20.000000000000018"/>
<node id="18" x="-148.07852804032305" y="-9.263548302419252"/>
<node id="19" x="-142.3879532511287" y="-37.40251485476345"/>
<node id="20" x="-133.14696123025453" y="-63.33553495294029"/>
<node id="21" x="-120.71067811865477" y="-86.06601717798212"/>
<node id="22" x="-105.55702330196021" y="-104.72044184538179"/>
<node id="23" x="-88.26834323650903" y="-118.58192987669298"/>
<node id="24" x="-69.50903220161287" y="-127.11779206048453"/>
<node id="25" x="-50.00000000000002" y="-130.0"/>
<node id="26" x="-30.49096779838717" y="-127.11779206048456"/>
<node id="27" x="-11.731656763491003" y="-118.58192987669301"/>
<node id="28" x="5.557023301960186" y="-104.72044184538183"/>
<node id="29" x="20.71067811865474" y="-86.06601717798215"/>
<node id="30" x="33.14696123025452" y="-63.33553495294032"/>
<node id="31" x="42.38795325112865" y="-37.40251485476355"/>
<node id="32" x="48.078528040323036" y="-9.263548302419306"/>
<node id="33" x="50.0" y="19.999999999999964"/>
<node id="34" x="150.0" y="20.0"/>
<node id="35" x="148.07852804032305" y="49.26354830241924"/>
<node id="36" x="142.3879532511287" y="77.40251485476347"/>
<node id="37" x="133.14696123025453" y="103.33553495294032"/>
<node id="38" x="120.71067811865476" y="126.06601717798212"/>
<node id="39" x="105.55702330196023" y="144.7204418453818"/>
<node id="40" x="88.26834323650898" y="158.581929876693"/>
<node id="41" x="69.50903220161283" y="167.11779206048456"/>
<node id="42" x="50.00000000000001" y="170.0"/>
<node id="43" x="30.49096779838718" y="167.11779206048456"/>
<node id="44" x="11.731656763491024" y="158.581929876693"/>
<node id="45" x="-5.557023301960193" y="144.72044184538183"/>
<node id="46" x="-20.71067811865474" y="126.06601717798215"/>
<node id="47" x="-33.14696123025453" y="103.33553495294032"/>
<node id="48" x="-42.38795325112868" y="77.4025148547635"/>
<node id="49" x="-48.07852804032305" y="49.263548302419295"/>
<node id="50" x="-50.0" y="20.000000000000018"/>
<node id="51" x="-48.07852804032305" y="-9.263548302419252"/>
<node id="52" x="-42.38795325112868" y="-37.40251485476345"/>
<node id="53" x="-33.14696123025455" y="-63.33553495294029"/>
<node id="54" x="-20.71067811865477" y="-86.06601717798212"/>
<node id="55" x="-5.557023301960214" y="-104.72044184538179"/>
<node id="56" x="11.731656763490967" y="-118.58192987669298"/>
<node id="57" x="30.490967798387132" y="-127.11779206048453"/>
<node id="58" x="49.99999999999998" y="-130.0"/>
<node id="59" x="69.50903220161283" y="-127.11779206048456"/>
<node id="60" x="88.268343236509" y="-118.58192987669301"/>
<node id="61" x="105.55702330196019" y="-104.72044184538183"/>
<node id="62" x="120.71067811865474" y="-86.06601717798215"/>
<node id="63" x="133.14696123025453" y="-63.33553495294032"/>
<node id="64" x="142.38795325112864" y="-37.40251485476355"/>
<node id="65" x="148.07852804032302" y="-9.263548302419306"/>
<node id="66" x="150.0" y="19.999999999999964"/>
<node id="67" x="150.0" y="200.0"/>
<node id="68" x="147.11779206048456" y="229.26354830241922"/>
<node id="69" x="138.581929876693" y="257.40251485476347"/>
<node id="70" x="124.72044184538179" y="283.3355349529403"/>
<node id="71" x="106.06601717798213" y="306.06601717798213"/>
<node id="72" x="83.33553495294035" y="324.7204418453818"/>
<node id="73" x="57.402514854763474" y="338.58192987669304"/>
<node id="74" x="29.26354830241925" y="347.1177920604846"/>
<node id="75" x="9.184850993605149e-15" y="350.0"/>
<node id="76" x="-29.263548302419228" y="347.1177920604846"/>
<node id="77" x="-57.40251485476346" y="338.58192987669304"/>
<node id="78" x="-83.3355349529403" y="324.7204418453818"/>
<node id="79" x="-106.06601717798212" y="306.06601717798213"/>
<node id="80" x="-124.7204418453818" y="283.3355349529403"/>
<node id="81" x="-138.581929876693" y="257.40251485476347"/>
<node id="82" x="-147.11779206048456" y="229.26354830241928"/>
<node id="83" x="-150.0" y="200.00000000000003"/>
<node id="84" x="-147.11779206048456" y="170.73645169758075"/>
<node id="85" x="-138.58192987669304" y="142.59748514523653"/>
<node id="86" x="-124.72044184538181" y="116.6644650470597"/>
<node id="87" x="-106.06601717798215" y="93.93398282201788"/>
<node id="88" x="-83.33553495294032" y="75.27955815461821"/>
<node id="89" x="-57.40251485476355" y="61.41807012330702"/>
<node id="90" x="-29.2635483024193" y="52.88220793951544"/>
<node id="91" x="-2.7554552980815446e-14" y="50.0"/>
<node id="92" x="29.263548302419245" y="52.88220793951544"/>
<node id="93" x="57.4025148547635" y="61.41807012330702"/>
<node id="94" x="83.33553495294028" y="75.27955815461819"/>
<node id="95" x="106.0660171779821" y="93.93398282201785"/>
<node id="96" x="124.72044184538179" y="116.66446504705968"/>
<node id="97" x="138.58192987669298" y="142.59748514523645"/>
<node id="98" x="147.11779206048456" y="170.7364516975807"/>
<node id="99" x="150.0" y="199.99999999999997"/>
<node id="100" x="175.0" y="350.0"/>
<node id="101" x="171.63742407056532" y="367.0704031764112"/>
<node id="102" x="161.67891818947518" y="383.48480033194534"/>
<node id="103" x="145.5071821529454" y="398.6123953892152"/>
<node id="104" x="123.74368670764582" y="411.8718433538229"/>
<node id="105" x="97.2247907784304" y="422.75359107647273"/>
<node id="106" x="66.96960066389072" y="430.8394590947376"/>
<node id="107" x="34.14080635282246" y="435.81871203528266"/>
<node id="108" x="1.0715659492539341e-14" y="437.5"/>
<node id="109" x="-34.14080635282243" y="435.81871203528266"/>
<node id="110" x="-66.9696006638907" y="430.8394590947376"/>
<node id="111" x="-97.22479077843035" y="422.75359107647273"/>
<node id="112" x="-123.74368670764581" y="411.8718433538229"/>
<node id="113" x="-145.50718215294543" y="398.6123953892152"/>
<node id="114" x="-161.67891818947518" y="383.4848003319454"/>
<node id="115" x="-171.63742407056532" y="367.0704031764113"/>
<node id="116" x="-175.0" y="350.0"/>
<node id="117" x="-171.63742407056532" y="332.9295968235888"/>
<node id="118" x="-161.6789181894752" y="316.51519966805466"/>
<node id="119" x="-145.50718215294546" y="301.3876046107848"/>
<node id="120" x="-123.74368670764585" y="288.1281566461771"/>
<node id="121" x="-97.22479077843037" y="277.24640892352727"/>
<node id="122" x="-66.96960066389082" y="269.16054090526245"/>
<node id="123" x="-34.140806352822516" y="264.18128796471734"/>
<node id="124" x="-3.214697847761802e-14" y="262.5"/>
<node id="125" x="34.14080635282245" y="264.18128796471734"/>
<node id="126" x="66.96960066389074" y="269.16054090526245"/>
<node id="127" x="97.22479077843032" y="277.24640892352727"/>
<node id="128" x="123.7436867076458" y="288.1281566461771"/>
<node id="129" x="145.5071821529454" y="301.3876046107848"/>
<node id="130" x="161.67891818947513" y="316.5151996680546"/>
<node id="131" x="171.63742407056532" y="332.9295968235887"/>
<node id="132" x="175.0" y="350.0"/>
</nodes>
