<configuration>
    <input>
        <net-file value="net.net.xml"/>
        <route-files value="circle.rou.xml" />
        <additional-files value="circle.add.xml" />
    </input>
    <time>
        <begin value="0"/>
        <end value="100000"/>
    </time>
</configuration>

