<edges>
<edge id="1" from="1" to="2" shape="50.00,20.00 49.88,27.36 49.52,34.70 48.92,42.01 48.08,49.26" numLanes="2"/>
<edge id="2" from="2" to="3" shape="48.08,49.26 47.00,56.45 45.69,63.54 44.15,70.53 42.39,77.40" numLanes="2"/>
<edge id="3" from="3" to="4" shape="42.39,77.40 40.40,84.13 38.19,90.71 35.77,97.12 33.15,103.34" numLanes="2"/>
<edge id="4" from="4" to="5" shape="33.15,103.34 30.32,109.35 27.30,115.16 24.10,120.73 20.71,126.07" numLanes="2"/>
<edge id="5" from="5" to="6" shape="20.71,126.07 17.16,131.14 13.44,135.95 9.57,140.48 5.56,144.72" numLanes="2"/>
<edge id="6" from="6" to="7" shape="5.56,144.72 1.41,148.66 -2.86,152.29 -7.24,155.60 -11.73,158.58" numLanes="2"/>
<edge id="7" from="7" to="8" shape="-11.73,158.58 -16.31,161.23 -20.97,163.54 -25.70,165.50 -30.49,167.12" numLanes="2"/>
<edge id="8" from="8" to="9" shape="-30.49,167.12 -35.33,168.38 -40.20,169.28 -45.09,169.82 -50.00,170.00" numLanes="2"/>
<edge id="9" from="9" to="10" shape="-50.00,170.00 -54.91,169.82 -59.80,169.28 -64.67,168.38 -69.51,167.12" numLanes="2"/>
<edge id="10" from="10" to="11" shape="-69.51,167.12 -74.30,165.50 -79.03,163.54 -83.69,161.23 -88.27,158.58" numLanes="2"/>
<edge id="11" from="11" to="12" shape="-88.27,158.58 -92.76,155.60 -97.14,152.29 -101.41,148.66 -105.56,144.72" numLanes="2"/>
<edge id="12" from="12" to="13" shape="-105.56,144.72 -109.57,140.48 -113.44,135.95 -117.16,131.14 -120.71,126.07" numLanes="2"/>
<edge id="13" from="13" to="14" shape="-120.71,126.07 -124.10,120.73 -127.30,115.16 -130.32,109.35 -133.15,103.34" numLanes="2"/>
<edge id="14" from="14" to="15" shape="-133.15,103.34 -135.77,97.12 -138.19,90.71 -140.40,84.13 -142.39,77.40" numLanes="2"/>
<edge id="15" from="15" to="16" shape="-142.39,77.40 -144.15,70.53 -145.69,63.54 -147.00,56.45 -148.08,49.26" numLanes="2"/>
<edge id="16" from="16" to="17" shape="-148.08,49.26 -148.92,42.01 -149.52,34.70 -149.88,27.36 -150.00,20.00" numLanes="2"/>
<edge id="17" from="17" to="18" shape="-150.00,20.00 -149.88,12.64 -149.52,5.30 -148.92,-2.01 -148.08,-9.26" numLanes="2"/>
<edge id="18" from="18" to="19" shape="-148.08,-9.26 -147.00,-16.45 -145.69,-23.54 -144.15,-30.53 -142.39,-37.40" numLanes="2"/>
<edge id="19" from="19" to="20" shape="-142.39,-37.40 -140.40,-44.13 -138.19,-50.71 -135.77,-57.12 -133.15,-63.34" numLanes="2"/>
<edge id="20" from="20" to="21" shape="-133.15,-63.34 -130.32,-69.35 -127.30,-75.16 -124.10,-80.73 -120.71,-86.07" numLanes="2"/>
<edge id="21" from="21" to="22" shape="-120.71,-86.07 -117.16,-91.14 -113.44,-95.95 -109.57,-100.48 -105.56,-104.72" numLanes="2"/>
<edge id="22" from="22" to="23" shape="-105.56,-104.72 -101.41,-108.66 -97.14,-112.29 -92.76,-115.60 -88.27,-118.58" numLanes="2"/>
<edge id="23" from="23" to="24" shape="-88.27,-118.58 -83.69,-121.23 -79.03,-123.54 -74.30,-125.50 -69.51,-127.12" numLanes="2"/>
<edge id="24" from="24" to="25" shape="-69.51,-127.12 -64.67,-128.38 -59.80,-129.28 -54.91,-129.82 -50.00,-130.00" numLanes="2"/>
<edge id="25" from="25" to="26" shape="-50.00,-130.00 -45.09,-129.82 -40.20,-129.28 -35.33,-128.38 -30.49,-127.12" numLanes="2"/>
<edge id="26" from="26" to="27" shape="-30.49,-127.12 -25.70,-125.50 -20.97,-123.54 -16.31,-121.23 -11.73,-118.58" numLanes="2"/>
<edge id="27" from="27" to="28" shape="-11.73,-118.58 -7.24,-115.60 -2.86,-112.29 1.41,-108.66 5.56,-104.72" numLanes="2"/>
<edge id="28" from="28" to="29" shape="5.56,-104.72 9.57,-100.48 13.44,-95.95 17.16,-91.14 20.71,-86.07" numLanes="2"/>
<edge id="29" from="29" to="30" shape="20.71,-86.07 24.10,-80.73 27.30,-75.16 30.32,-69.35 33.15,-63.34" numLanes="2"/>
<edge id="30" from="30" to="31" shape="33.15,-63.34 35.77,-57.12 38.19,-50.71 40.40,-44.13 42.39,-37.40" numLanes="2"/>
<edge id="31" from="31" to="32" shape="42.39,-37.40 44.15,-30.53 45.69,-23.54 47.00,-16.45 48.08,-9.26" numLanes="2"/>
<edge id="32" from="32" to="33" shape="48.08,-9.26 48.92,-2.01 49.52,5.30 49.88,12.64 50.00,20.00" numLanes="2"/>
<edge id="33" from="34" to="35" shape="150.00,20.00 149.88,27.36 149.52,34.70 148.92,42.01 148.08,49.26" numLanes="2"/>
<edge id="34" from="35" to="36" shape="148.08,49.26 147.00,56.45 145.69,63.54 144.15,70.53 142.39,77.40" numLanes="2"/>
<edge id="35" from="36" to="37" shape="142.39,77.40 140.40,84.13 138.19,90.71 135.77,97.12 133.15,103.34" numLanes="2"/>
<edge id="36" from="37" to="38" shape="133.15,103.34 130.32,109.35 127.30,115.16 124.10,120.73 120.71,126.07" numLanes="2"/>
<edge id="37" from="38" to="39" shape="120.71,126.07 117.16,131.14 113.44,135.95 109.57,140.48 105.56,144.72" numLanes="2"/>
<edge id="38" from="39" to="40" shape="105.56,144.72 101.41,148.66 97.14,152.29 92.76,155.60 88.27,158.58" numLanes="2"/>
<edge id="39" from="40" to="41" shape="88.27,158.58 83.69,161.23 79.03,163.54 74.30,165.50 69.51,167.12" numLanes="2"/>
<edge id="40" from="41" to="42" shape="69.51,167.12 64.67,168.38 59.80,169.28 54.91,169.82 50.00,170.00" numLanes="2"/>
<edge id="41" from="42" to="43" shape="50.00,170.00 45.09,169.82 40.20,169.28 35.33,168.38 30.49,167.12" numLanes="2"/>
<edge id="42" from="43" to="44" shape="30.49,167.12 25.70,165.50 20.97,163.54 16.31,161.23 11.73,158.58" numLanes="2"/>
<edge id="43" from="44" to="45" shape="11.73,158.58 7.24,155.60 2.86,152.29 -1.41,148.66 -5.56,144.72" numLanes="2"/>
<edge id="44" from="45" to="46" shape="-5.56,144.72 -9.57,140.48 -13.44,135.95 -17.16,131.14 -20.71,126.07" numLanes="2"/>
<edge id="45" from="46" to="47" shape="-20.71,126.07 -24.10,120.73 -27.30,115.16 -30.32,109.35 -33.15,103.34" numLanes="2"/>
<edge id="46" from="47" to="48" shape="-33.15,103.34 -35.77,97.12 -38.19,90.71 -40.40,84.13 -42.39,77.40" numLanes="2"/>
<edge id="47" from="48" to="49" shape="-42.39,77.40 -44.15,70.53 -45.69,63.54 -47.00,56.45 -48.08,49.26" numLanes="2"/>
<edge id="48" from="49" to="50" shape="-48.08,49.26 -48.92,42.01 -49.52,34.70 -49.88,27.36 -50.00,20.00" numLanes="2"/>
<edge id="49" from="50" to="51" shape="-50.00,20.00 -49.88,12.64 -49.52,5.30 -48.92,-2.01 -48.08,-9.26" numLanes="2"/>
<edge id="50" from="51" to="52" shape="-48.08,-9.26 -47.00,-16.45 -45.69,-23.54 -44.15,-30.53 -42.39,-37.40" numLanes="2"/>
<edge id="51" from="52" to="53" shape="-42.39,-37.40 -40.40,-44.13 -38.19,-50.71 -35.77,-57.12 -33.15,-63.34" numLanes="2"/>
<edge id="52" from="53" to="54" shape="-33.15,-63.34 -30.32,-69.35 -27.30,-75.16 -24.10,-80.73 -20.71,-86.07" numLanes="2"/>
<edge id="53" from="54" to="55" shape="-20.71,-86.07 -17.16,-91.14 -13.44,-95.95 -9.57,-100.48 -5.56,-104.72" numLanes="2"/>
<edge id="54" from="55" to="56" shape="-5.56,-104.72 -1.41,-108.66 2.86,-112.29 7.24,-115.60 11.73,-118.58" numLanes="2"/>
<edge id="55" from="56" to="57" shape="11.73,-118.58 16.31,-121.23 20.97,-123.54 25.70,-125.50 30.49,-127.12" numLanes="2"/>
<edge id="56" from="57" to="58" shape="30.49,-127.12 35.33,-128.38 40.20,-129.28 45.09,-129.82 50.00,-130.00" numLanes="2"/>
<edge id="57" from="58" to="59" shape="50.00,-130.00 54.91,-129.82 59.80,-129.28 64.67,-128.38 69.51,-127.12" numLanes="2"/>
<edge id="58" from="59" to="60" shape="69.51,-127.12 74.30,-125.50 79.03,-123.54 83.69,-121.23 88.27,-118.58" numLanes="2"/>
<edge id="59" from="60" to="61" shape="88.27,-118.58 92.76,-115.60 97.14,-112.29 101.41,-108.66 105.56,-104.72" numLanes="2"/>
<edge id="60" from="61" to="62" shape="105.56,-104.72 109.57,-100.48 113.44,-95.95 117.16,-91.14 120.71,-86.07" numLanes="2"/>
<edge id="61" from="62" to="63" shape="120.71,-86.07 124.10,-80.73 127.30,-75.16 130.32,-69.35 133.15,-63.34" numLanes="2"/>
<edge id="62" from="63" to="64" shape="133.15,-63.34 135.77,-57.12 138.19,-50.71 140.40,-44.13 142.39,-37.40" numLanes="2"/>
<edge id="63" from="64" to="65" shape="142.39,-37.40 144.15,-30.53 145.69,-23.54 147.00,-16.45 148.08,-9.26" numLanes="2"/>
<edge id="64" from="65" to="66" shape="148.08,-9.26 148.92,-2.01 149.52,5.30 149.88,12.64 150.00,20.00" numLanes="2"/>
<edge id="65" from="67" to="68" shape="150.00,200.00 149.82,207.36 149.28,214.70 148.38,222.01 147.12,229.26" numLanes="2"/>
<edge id="66" from="68" to="69" shape="147.12,229.26 145.50,236.45 143.54,243.54 141.23,250.53 138.58,257.40" numLanes="2"/>
<edge id="67" from="69" to="70" shape="138.58,257.40 135.60,264.13 132.29,270.71 128.66,277.12 124.72,283.34" numLanes="2"/>
<edge id="68" from="70" to="71" shape="124.72,283.34 120.48,289.35 115.95,295.16 111.14,300.73 106.07,306.07" numLanes="2"/>
<edge id="69" from="71" to="72" shape="106.07,306.07 100.73,311.14 95.16,315.95 89.35,320.48 83.34,324.72" numLanes="2"/>
<edge id="70" from="72" to="73" shape="83.34,324.72 77.12,328.66 70.71,332.29 64.13,335.60 57.40,338.58" numLanes="2"/>
<edge id="71" from="73" to="74" shape="57.40,338.58 50.53,341.23 43.54,343.54 36.45,345.50 29.26,347.12" numLanes="2"/>
<edge id="72" from="74" to="75" shape="29.26,347.12 22.01,348.38 14.70,349.28 7.36,349.82 0.00,350.00" numLanes="2"/>
<edge id="73" from="75" to="76" shape="0.00,350.00 -7.36,349.82 -14.70,349.28 -22.01,348.38 -29.26,347.12" numLanes="2"/>
<edge id="74" from="76" to="77" shape="-29.26,347.12 -36.45,345.50 -43.54,343.54 -50.53,341.23 -57.40,338.58" numLanes="2"/>
<edge id="75" from="77" to="78" shape="-57.40,338.58 -64.13,335.60 -70.71,332.29 -77.12,328.66 -83.34,324.72" numLanes="2"/>
<edge id="76" from="78" to="79" shape="-83.34,324.72 -89.35,320.48 -95.16,315.95 -100.73,311.14 -106.07,306.07" numLanes="2"/>
<edge id="77" from="79" to="80" shape="-106.07,306.07 -111.14,300.73 -115.95,295.16 -120.48,289.35 -124.72,283.34" numLanes="2"/>
<edge id="78" from="80" to="81" shape="-124.72,283.34 -128.66,277.12 -132.29,270.71 -135.60,264.13 -138.58,257.40" numLanes="2"/>
<edge id="79" from="81" to="82" shape="-138.58,257.40 -141.23,250.53 -143.54,243.54 -145.50,236.45 -147.12,229.26" numLanes="2"/>
<edge id="80" from="82" to="83" shape="-147.12,229.26 -148.38,222.01 -149.28,214.70 -149.82,207.36 -150.00,200.00" numLanes="2"/>
<edge id="81" from="83" to="84" shape="-150.00,200.00 -149.82,192.64 -149.28,185.30 -148.38,177.99 -147.12,170.74" numLanes="2"/>
<edge id="82" from="84" to="85" shape="-147.12,170.74 -145.50,163.55 -143.54,156.46 -141.23,149.47 -138.58,142.60" numLanes="2"/>
<edge id="83" from="85" to="86" shape="-138.58,142.60 -135.60,135.87 -132.29,129.29 -128.66,122.88 -124.72,116.66" numLanes="2"/>
<edge id="84" from="86" to="87" shape="-124.72,116.66 -120.48,110.65 -115.95,104.84 -111.14,99.27 -106.07,93.93" numLanes="2"/>
<edge id="85" from="87" to="88" shape="-106.07,93.93 -100.73,88.86 -95.16,84.05 -89.35,79.52 -83.34,75.28" numLanes="2"/>
<edge id="86" from="88" to="89" shape="-83.34,75.28 -77.12,71.34 -70.71,67.71 -64.13,64.40 -57.40,61.42" numLanes="2"/>
<edge id="87" from="89" to="90" shape="-57.40,61.42 -50.53,58.77 -43.54,56.46 -36.45,54.50 -29.26,52.88" numLanes="2"/>
<edge id="88" from="90" to="91" shape="-29.26,52.88 -22.01,51.62 -14.70,50.72 -7.36,50.18 -0.00,50.00" numLanes="2"/>
<edge id="89" from="91" to="92" shape="-0.00,50.00 7.36,50.18 14.70,50.72 22.01,51.62 29.26,52.88" numLanes="2"/>
<edge id="90" from="92" to="93" shape="29.26,52.88 36.45,54.50 43.54,56.46 50.53,58.77 57.40,61.42" numLanes="2"/>
<edge id="91" from="93" to="94" shape="57.40,61.42 64.13,64.40 70.71,67.71 77.12,71.34 83.34,75.28" numLanes="2"/>
<edge id="92" from="94" to="95" shape="83.34,75.28 89.35,79.52 95.16,84.05 100.73,88.86 106.07,93.93" numLanes="2"/>
<edge id="93" from="95" to="96" shape="106.07,93.93 111.14,99.27 115.95,104.84 120.48,110.65 124.72,116.66" numLanes="2"/>
<edge id="94" from="96" to="97" shape="124.72,116.66 128.66,122.88 132.29,129.29 135.60,135.87 138.58,142.60" numLanes="2"/>
<edge id="95" from="97" to="98" shape="138.58,142.60 141.23,149.47 143.54,156.46 145.50,163.55 147.12,170.74" numLanes="2"/>
<edge id="96" from="98" to="99" shape="147.12,170.74 148.38,177.99 149.28,185.30 149.82,192.64 150.00,200.00" numLanes="2"/>
<edge id="97" from="100" to="101" shape="175.00,350.00 174.79,354.29 174.16,358.58 173.11,362.84 171.64,367.07" numLanes="2"/>
<edge id="98" from="101" to="102" shape="171.64,367.07 169.76,371.26 167.46,375.40 164.77,379.48 161.68,383.48" numLanes="2"/>
<edge id="99" from="102" to="103" shape="161.68,383.48 158.20,387.41 154.34,391.25 150.10,394.98 145.51,398.61" numLanes="2"/>
<edge id="100" from="103" to="104" shape="145.51,398.61 140.56,402.12 135.28,405.51 129.67,408.76 123.74,411.87" numLanes="2"/>
<edge id="101" from="104" to="105" shape="123.74,411.87 117.52,414.83 111.02,417.64 104.25,420.28 97.22,422.75" numLanes="2"/>
<edge id="102" from="105" to="106" shape="97.22,422.75 89.97,425.05 82.49,427.17 74.82,429.10 66.97,430.84" numLanes="2"/>
<edge id="103" from="106" to="107" shape="66.97,430.84 58.96,432.39 50.80,433.73 42.52,434.88 34.14,435.82" numLanes="2"/>
<edge id="104" from="107" to="108" shape="34.14,435.82 25.68,436.55 17.15,437.08 8.59,437.39 0.00,437.50" numLanes="2"/>
<edge id="105" from="108" to="109" shape="0.00,437.50 -8.59,437.39 -17.15,437.08 -25.68,436.55 -34.14,435.82" numLanes="2"/>
<edge id="106" from="109" to="110" shape="-34.14,435.82 -42.52,434.88 -50.80,433.73 -58.96,432.39 -66.97,430.84" numLanes="2"/>
<edge id="107" from="110" to="111" shape="-66.97,430.84 -74.82,429.10 -82.49,427.17 -89.97,425.05 -97.22,422.75" numLanes="2"/>
<edge id="108" from="111" to="112" shape="-97.22,422.75 -104.25,420.28 -111.02,417.64 -117.52,414.83 -123.74,411.87" numLanes="2"/>
<edge id="109" from="112" to="113" shape="-123.74,411.87 -129.67,408.76 -135.28,405.51 -140.56,402.12 -145.51,398.61" numLanes="2"/>
<edge id="110" from="113" to="114" shape="-145.51,398.61 -150.10,394.98 -154.34,391.25 -158.20,387.41 -161.68,383.48" numLanes="2"/>
<edge id="111" from="114" to="115" shape="-161.68,383.48 -164.77,379.48 -167.46,375.40 -169.76,371.26 -171.64,367.07" numLanes="2"/>
<edge id="112" from="115" to="116" shape="-171.64,367.07 -173.11,362.84 -174.16,358.58 -174.79,354.29 -175.00,350.00" numLanes="2"/>
<edge id="113" from="116" to="117" shape="-175.00,350.00 -174.79,345.71 -174.16,341.42 -173.11,337.16 -171.64,332.93" numLanes="2"/>
<edge id="114" from="117" to="118" shape="-171.64,332.93 -169.76,328.74 -167.46,324.60 -164.77,320.52 -161.68,316.52" numLanes="2"/>
<edge id="115" from="118" to="119" shape="-161.68,316.52 -158.20,312.59 -154.34,308.75 -150.10,305.02 -145.51,301.39" numLanes="2"/>
<edge id="116" from="119" to="120" shape="-145.51,301.39 -140.56,297.88 -135.28,294.49 -129.67,291.24 -123.74,288.13" numLanes="2"/>
<edge id="117" from="120" to="121" shape="-123.74,288.13 -117.52,285.17 -111.02,282.36 -104.25,279.72 -97.22,277.25" numLanes="2"/>
<edge id="118" from="121" to="122" shape="-97.22,277.25 -89.97,274.95 -82.49,272.83 -74.82,270.90 -66.97,269.16" numLanes="2"/>
<edge id="119" from="122" to="123" shape="-66.97,269.16 -58.96,267.61 -50.80,266.27 -42.52,265.12 -34.14,264.18" numLanes="2"/>
<edge id="120" from="123" to="124" shape="-34.14,264.18 -25.68,263.45 -17.15,262.92 -8.59,262.61 -0.00,262.50" numLanes="2"/>
<edge id="121" from="124" to="125" shape="-0.00,262.50 8.59,262.61 17.15,262.92 25.68,263.45 34.14,264.18" numLanes="2"/>
<edge id="122" from="125" to="126" shape="34.14,264.18 42.52,265.12 50.80,266.27 58.96,267.61 66.97,269.16" numLanes="2"/>
<edge id="123" from="126" to="127" shape="66.97,269.16 74.82,270.90 82.49,272.83 89.97,274.95 97.22,277.25" numLanes="2"/>
<edge id="124" from="127" to="128" shape="97.22,277.25 104.25,279.72 111.02,282.36 117.52,285.17 123.74,288.13" numLanes="2"/>
<edge id="125" from="128" to="129" shape="123.74,288.13 129.67,291.24 135.28,294.49 140.56,297.88 145.51,301.39" numLanes="2"/>
<edge id="126" from="129" to="130" shape="145.51,301.39 150.10,305.02 154.34,308.75 158.20,312.59 161.68,316.52" numLanes="2"/>
<edge id="127" from="130" to="131" shape="161.68,316.52 164.77,320.52 167.46,324.60 169.76,328.74 171.64,332.93" numLanes="2"/>
<edge id="128" from="131" to="132" shape="171.64,332.93 173.11,337.16 174.16,341.42 174.79,345.71 175.00,350.00" numLanes="2"/>
</edges>
