<?xml version="1.0" encoding="UTF-8"?>

<!-- generated on 2023-12-07 17:58:58 by Eclipse SUMO netconvert Version 1.19.0
<configuration xmlns:xsi="http://www.w3.org/2001/XMLSchema-instance" xsi:noNamespaceSchemaLocation="http://sumo.dlr.de/xsd/netconvertConfiguration.xsd">

    <input>
        <node-files value="mynode.nod.xml"/>
        <edge-files value="myedge.edg.xml"/>
    </input>

    <output>
        <output-file value="mynet.net.xml"/>
    </output>

</configuration>
-->

<net version="1.16" junctionCornerDetail="5" limitTurnSpeed="5.50" xmlns:xsi="http://www.w3.org/2001/XMLSchema-instance" xsi:noNamespaceSchemaLocation="http://sumo.dlr.de/xsd/net_file.xsd">

    <location netOffset="150.00,150.00" convBoundary="0.00,0.00,300.00,300.00" origBoundary="-150.00,-150.00,150.00,150.00" projParameter="!"/>

    <edge id=":e_0" function="internal">
        <lane id=":e_0_0" index="0" speed="3.65" length="4.67" shape="300.00,148.40 301.20,149.20 301.60,150.00 301.20,150.80 300.00,151.60"/>
    </edge>
    <edge id=":n_0" function="internal">
        <lane id=":n_0_0" index="0" speed="3.65" length="4.67" shape="151.60,300.00 150.80,301.20 150.00,301.60 149.20,301.20 148.40,300.00"/>
    </edge>
    <edge id=":s_0" function="internal">
        <lane id=":s_0_0" index="0" speed="3.65" length="4.67" shape="148.40,0.00 149.20,-1.20 150.00,-1.60 150.80,-1.20 151.60,-0.00"/>
    </edge>
    <edge id=":t_0" function="internal">
        <lane id=":t_0_0" index="0" speed="6.51" length="9.03" shape="142.00,163.60 141.65,161.15 140.60,159.40 138.85,158.35 136.40,158.00"/>
    </edge>
    <edge id=":t_1" function="internal">
        <lane id=":t_1_0" index="0" speed="13.89" length="27.20" shape="142.00,163.60 142.00,136.40"/>
        <lane id=":t_1_1" index="1" speed="13.89" length="27.20" shape="145.20,163.60 145.20,136.40"/>
        <lane id=":t_1_2" index="2" speed="13.89" length="27.20" shape="148.40,163.60 148.40,136.40"/>
    </edge>
    <edge id=":t_4" function="internal">
        <lane id=":t_4_0" index="0" speed="10.36" length="5.01" shape="148.40,163.60 149.11,158.64"/>
    </edge>
    <edge id=":t_5" function="internal">
        <lane id=":t_5_0" index="0" speed="3.65" length="1.44" shape="148.40,163.60 149.20,162.40"/>
    </edge>
    <edge id=":t_24" function="internal">
        <lane id=":t_24_0" index="0" speed="10.36" length="19.50" shape="149.11,158.64 149.35,156.95 152.20,152.20 156.95,149.35 163.60,148.40"/>
    </edge>
    <edge id=":t_25" function="internal">
        <lane id=":t_25_0" index="0" speed="3.65" length="3.23" shape="149.20,162.40 150.00,162.00 150.80,162.40 151.60,163.60"/>
    </edge>
    <edge id=":t_6" function="internal">
        <lane id=":t_6_0" index="0" speed="6.51" length="9.03" shape="163.60,158.00 161.15,158.35 159.40,159.40 158.35,161.15 158.00,163.60"/>
    </edge>
    <edge id=":t_7" function="internal">
        <lane id=":t_7_0" index="0" speed="13.89" length="27.20" shape="163.60,158.00 136.40,158.00"/>
        <lane id=":t_7_1" index="1" speed="13.89" length="27.20" shape="163.60,154.80 136.40,154.80"/>
        <lane id=":t_7_2" index="2" speed="13.89" length="27.20" shape="163.60,151.60 136.40,151.60"/>
    </edge>
    <edge id=":t_10" function="internal">
        <lane id=":t_10_0" index="0" speed="10.36" length="5.01" shape="163.60,151.60 158.64,150.89"/>
    </edge>
    <edge id=":t_11" function="internal">
        <lane id=":t_11_0" index="0" speed="3.65" length="1.44" shape="163.60,151.60 162.40,150.80"/>
    </edge>
    <edge id=":t_26" function="internal">
        <lane id=":t_26_0" index="0" speed="10.36" length="19.50" shape="158.64,150.89 156.95,150.65 152.20,147.80 149.35,143.05 148.40,136.40"/>
    </edge>
    <edge id=":t_27" function="internal">
        <lane id=":t_27_0" index="0" speed="3.65" length="3.23" shape="162.40,150.80 162.00,150.00 162.40,149.20 163.60,148.40"/>
    </edge>
    <edge id=":t_12" function="internal">
        <lane id=":t_12_0" index="0" speed="6.51" length="9.03" shape="158.00,136.40 158.35,138.85 159.40,140.60 161.15,141.65 163.60,142.00"/>
    </edge>
    <edge id=":t_13" function="internal">
        <lane id=":t_13_0" index="0" speed="13.89" length="27.20" shape="158.00,136.40 158.00,163.60"/>
        <lane id=":t_13_1" index="1" speed="13.89" length="27.20" shape="154.80,136.40 154.80,163.60"/>
        <lane id=":t_13_2" index="2" speed="13.89" length="27.20" shape="151.60,136.40 151.60,163.60"/>
    </edge>
    <edge id=":t_16" function="internal">
        <lane id=":t_16_0" index="0" speed="10.36" length="5.01" shape="151.60,136.40 150.89,141.36"/>
    </edge>
    <edge id=":t_17" function="internal">
        <lane id=":t_17_0" index="0" speed="3.65" length="1.44" shape="151.60,136.40 150.80,137.60"/>
    </edge>
    <edge id=":t_28" function="internal">
        <lane id=":t_28_0" index="0" speed="10.36" length="19.50" shape="150.89,141.36 150.65,143.05 147.80,147.80 143.05,150.65 136.40,151.60"/>
    </edge>
    <edge id=":t_29" function="internal">
        <lane id=":t_29_0" index="0" speed="3.65" length="3.23" shape="150.80,137.60 150.00,138.00 149.20,137.60 148.40,136.40"/>
    </edge>
    <edge id=":t_18" function="internal">
        <lane id=":t_18_0" index="0" speed="6.51" length="9.03" shape="136.40,142.00 138.85,141.65 140.60,140.60 141.65,138.85 142.00,136.40"/>
    </edge>
    <edge id=":t_19" function="internal">
        <lane id=":t_19_0" index="0" speed="13.89" length="27.20" shape="136.40,142.00 163.60,142.00"/>
        <lane id=":t_19_1" index="1" speed="13.89" length="27.20" shape="136.40,145.20 163.60,145.20"/>
        <lane id=":t_19_2" index="2" speed="13.89" length="27.20" shape="136.40,148.40 163.60,148.40"/>
    </edge>
    <edge id=":t_22" function="internal">
        <lane id=":t_22_0" index="0" speed="10.36" length="5.01" shape="136.40,148.40 141.36,149.11"/>
    </edge>
    <edge id=":t_23" function="internal">
        <lane id=":t_23_0" index="0" speed="3.65" length="1.44" shape="136.40,148.40 137.60,149.20"/>
    </edge>
    <edge id=":t_30" function="internal">
        <lane id=":t_30_0" index="0" speed="10.36" length="19.50" shape="141.36,149.11 143.05,149.35 147.80,152.20 150.65,156.95 151.60,163.60"/>
    </edge>
    <edge id=":t_31" function="internal">
        <lane id=":t_31_0" index="0" speed="3.65" length="3.23" shape="137.60,149.20 138.00,150.00 137.60,150.80 136.40,151.60"/>
    </edge>
    <edge id=":w_0" function="internal">
        <lane id=":w_0_0" index="0" speed="3.65" length="4.67" shape="0.00,151.60 -1.20,150.80 -1.60,150.00 -1.20,149.20 -0.00,148.40"/>
    </edge>

    <edge id="e_t" from="e" to="t" priority="-1">
        <lane id="e_t_0" index="0" speed="13.89" length="136.40" shape="300.00,158.00 163.60,158.00"/>
        <lane id="e_t_1" index="1" speed="13.89" length="136.40" shape="300.00,154.80 163.60,154.80"/>
        <lane id="e_t_2" index="2" speed="13.89" length="136.40" shape="300.00,151.60 163.60,151.60"/>
    </edge>
    <edge id="n_t" from="n" to="t" priority="-1">
        <lane id="n_t_0" index="0" speed="13.89" length="136.40" shape="142.00,300.00 142.00,163.60"/>
        <lane id="n_t_1" index="1" speed="13.89" length="136.40" shape="145.20,300.00 145.20,163.60"/>
        <lane id="n_t_2" index="2" speed="13.89" length="136.40" shape="148.40,300.00 148.40,163.60"/>
    </edge>
    <edge id="s_t" from="s" to="t" priority="-1">
        <lane id="s_t_0" index="0" speed="13.89" length="136.40" shape="158.00,-0.00 158.00,136.40"/>
        <lane id="s_t_1" index="1" speed="13.89" length="136.40" shape="154.80,-0.00 154.80,136.40"/>
        <lane id="s_t_2" index="2" speed="13.89" length="136.40" shape="151.60,-0.00 151.60,136.40"/>
    </edge>
    <edge id="t_e" from="t" to="e" priority="-1">
        <lane id="t_e_0" index="0" speed="13.89" length="136.40" shape="163.60,142.00 300.00,142.00"/>
        <lane id="t_e_1" index="1" speed="13.89" length="136.40" shape="163.60,145.20 300.00,145.20"/>
        <lane id="t_e_2" index="2" speed="13.89" length="136.40" shape="163.60,148.40 300.00,148.40"/>
    </edge>
    <edge id="t_n" from="t" to="n" priority="-1">
        <lane id="t_n_0" index="0" speed="13.89" length="136.40" shape="158.00,163.60 158.00,300.00"/>
        <lane id="t_n_1" index="1" speed="13.89" length="136.40" shape="154.80,163.60 154.80,300.00"/>
        <lane id="t_n_2" index="2" speed="13.89" length="136.40" shape="151.60,163.60 151.60,300.00"/>
    </edge>
    <edge id="t_s" from="t" to="s" priority="-1">
        <lane id="t_s_0" index="0" speed="13.89" length="136.40" shape="142.00,136.40 142.00,0.00"/>
        <lane id="t_s_1" index="1" speed="13.89" length="136.40" shape="145.20,136.40 145.20,0.00"/>
        <lane id="t_s_2" index="2" speed="13.89" length="136.40" shape="148.40,136.40 148.40,0.00"/>
    </edge>
    <edge id="t_w" from="t" to="w" priority="-1">
        <lane id="t_w_0" index="0" speed="13.89" length="136.40" shape="136.40,158.00 0.00,158.00"/>
        <lane id="t_w_1" index="1" speed="13.89" length="136.40" shape="136.40,154.80 0.00,154.80"/>
        <lane id="t_w_2" index="2" speed="13.89" length="136.40" shape="136.40,151.60 0.00,151.60"/>
    </edge>
    <edge id="w_t" from="w" to="t" priority="-1">
        <lane id="w_t_0" index="0" speed="13.89" length="136.40" shape="-0.00,142.00 136.40,142.00"/>
        <lane id="w_t_1" index="1" speed="13.89" length="136.40" shape="-0.00,145.20 136.40,145.20"/>
        <lane id="w_t_2" index="2" speed="13.89" length="136.40" shape="-0.00,148.40 136.40,148.40"/>
    </edge>

    <tlLogic id="tl_1" type="actuated" programID="0" offset="0">
        <phase duration="42" state="GGGGggrrrrrrGGGGggrrrrrr" minDur="5" maxDur="50"/>
        <phase duration="3"  state="yyyyyyrrrrrryyyyyyrrrrrr"/>
        <phase duration="42" state="rrrrrrGGGGggrrrrrrGGGGgg" minDur="5" maxDur="50"/>
        <phase duration="3"  state="rrrrrryyyyyyrrrrrryyyyyy"/>
    </tlLogic>

    <junction id="e" type="priority" x="300.00" y="150.00" incLanes="t_e_0 t_e_1 t_e_2" intLanes=":e_0_0" shape="300.00,150.00 300.00,140.40 300.00,150.00">
        <request index="0" response="0" foes="0" cont="0"/>
    </junction>
    <junction id="n" type="priority" x="150.00" y="300.00" incLanes="t_n_0 t_n_1 t_n_2" intLanes=":n_0_0" shape="150.00,300.00 159.60,300.00 150.00,300.00">
        <request index="0" response="0" foes="0" cont="0"/>
    </junction>
    <junction id="s" type="priority" x="150.00" y="0.00" incLanes="t_s_0 t_s_1 t_s_2" intLanes=":s_0_0" shape="150.00,-0.00 140.40,-0.00 150.00,-0.00">
        <request index="0" response="0" foes="0" cont="0"/>
    </junction>
    <junction id="t" type="traffic_light" x="150.00" y="150.00" incLanes="n_t_0 n_t_1 n_t_2 e_t_0 e_t_1 e_t_2 s_t_0 s_t_1 s_t_2 w_t_0 w_t_1 w_t_2" intLanes=":t_0_0 :t_1_0 :t_1_1 :t_1_2 :t_24_0 :t_25_0 :t_6_0 :t_7_0 :t_7_1 :t_7_2 :t_26_0 :t_27_0 :t_12_0 :t_13_0 :t_13_1 :t_13_2 :t_28_0 :t_29_0 :t_18_0 :t_19_0 :t_19_1 :t_19_2 :t_30_0 :t_31_0" shape="140.40,163.60 159.60,163.60 160.04,161.38 160.60,160.60 161.38,160.04 162.38,159.71 163.60,159.60 163.60,140.40 161.38,139.96 160.60,139.40 160.04,138.62 159.71,137.62 159.60,136.40 140.40,136.40 139.96,138.62 139.40,139.40 138.62,139.96 137.62,140.29 136.40,140.40 136.40,159.60 138.62,160.04 139.40,160.60 139.96,161.38 140.29,162.38">
        <request index="0"  response="000000000000000000000000" foes="000000000000001110000000" cont="0"/>
        <request index="1"  response="010000000000010000000000" foes="011111110000011110000000" cont="0"/>
        <request index="2"  response="010000000000010000000000" foes="011111110000011110000000" cont="0"/>
        <request index="3"  response="010000000000010000000000" foes="011111110000011110000000" cont="0"/>
        <request index="4"  response="010000001110010000000000" foes="011110001110111110000000" cont="1"/>
        <request index="5"  response="010000001110000000000000" foes="010000001110000000000000" cont="1"/>
        <request index="6"  response="000000001110000000000000" foes="000000001110000000000000" cont="0"/>
        <request index="7"  response="000000011110000000011111" foes="110000011110000000011111" cont="0"/>
        <request index="8"  response="000000011110000000011111" foes="110000011110000000011111" cont="0"/>
        <request index="9"  response="000000011110000000011111" foes="110000011110000000011111" cont="0"/>
        <request index="10" response="001110011110000000011110" foes="001110111110000000011110" cont="1"/>
        <request index="11" response="001110000000000000010000" foes="001110000000000000010000" cont="1"/>
        <request index="12" response="000000000000000000000000" foes="001110000000000000000000" cont="0"/>
        <request index="13" response="010000000000010000000000" foes="011110000000011111110000" cont="0"/>
        <request index="14" response="010000000000010000000000" foes="011110000000011111110000" cont="0"/>
        <request index="15" response="010000000000010000000000" foes="011110000000011111110000" cont="0"/>
        <request index="16" response="010000000000010000001110" foes="111110000000011110001110" cont="1"/>
        <request index="17" response="000000000000010000001110" foes="000000000000010000001110" cont="1"/>
        <request index="18" response="000000000000000000001110" foes="000000000000000000001110" cont="0"/>
        <request index="19" response="000000011111000000011110" foes="000000011111110000011110" cont="0"/>
        <request index="20" response="000000011111000000011110" foes="000000011111110000011110" cont="0"/>
        <request index="21" response="000000011111000000011110" foes="000000011111110000011110" cont="0"/>
        <request index="22" response="000000011110001110011110" foes="000000011110001110111110" cont="1"/>
        <request index="23" response="000000010000001110000000" foes="000000010000001110000000" cont="1"/>
    </junction>
    <junction id="w" type="priority" x="0.00" y="150.00" incLanes="t_w_0 t_w_1 t_w_2" intLanes=":w_0_0" shape="-0.00,150.00 -0.00,159.60 -0.00,150.00">
        <request index="0" response="0" foes="0" cont="0"/>
    </junction>

    <junction id=":t_24_0" type="internal" x="149.11" y="158.64" incLanes=":t_4_0 s_t_0 s_t_1 s_t_2" intLanes=":t_7_0 :t_7_1 :t_7_2 :t_10_0 :t_11_0 :t_12_0 :t_13_0 :t_13_1 :t_13_2 :t_19_0 :t_19_1 :t_19_2 :t_22_0"/>
    <junction id=":t_25_0" type="internal" x="149.20" y="162.40" incLanes=":t_5_0 e_t_0 s_t_0 s_t_1 s_t_2 w_t_2" intLanes=":t_6_0 :t_13_0 :t_13_1 :t_13_2 :t_22_0"/>
    <junction id=":t_26_0" type="internal" x="158.64" y="150.89" incLanes=":t_10_0 w_t_0 w_t_1 w_t_2" intLanes=":t_1_0 :t_1_1 :t_1_2 :t_4_0 :t_13_0 :t_13_1 :t_13_2 :t_16_0 :t_17_0 :t_18_0 :t_19_0 :t_19_1 :t_19_2"/>
    <junction id=":t_27_0" type="internal" x="162.40" y="150.80" incLanes=":t_11_0 n_t_2 s_t_0 w_t_0 w_t_1 w_t_2" intLanes=":t_4_0 :t_12_0 :t_19_0 :t_19_1 :t_19_2"/>
    <junction id=":t_28_0" type="internal" x="150.89" y="141.36" incLanes=":t_16_0 n_t_0 n_t_1 n_t_2" intLanes=":t_0_0 :t_1_0 :t_1_1 :t_1_2 :t_7_0 :t_7_1 :t_7_2 :t_10_0 :t_19_0 :t_19_1 :t_19_2 :t_22_0 :t_23_0"/>
    <junction id=":t_29_0" type="internal" x="150.80" y="137.60" incLanes=":t_17_0 e_t_2 n_t_0 n_t_1 n_t_2 w_t_0" intLanes=":t_1_0 :t_1_1 :t_1_2 :t_10_0 :t_18_0"/>
    <junction id=":t_30_0" type="internal" x="141.36" y="149.11" incLanes=":t_22_0 e_t_0 e_t_1 e_t_2" intLanes=":t_1_0 :t_1_1 :t_1_2 :t_4_0 :t_5_0 :t_6_0 :t_7_0 :t_7_1 :t_7_2 :t_13_0 :t_13_1 :t_13_2 :t_16_0"/>
    <junction id=":t_31_0" type="internal" x="137.60" y="149.20" incLanes=":t_23_0 e_t_0 e_t_1 e_t_2 n_t_0 s_t_2" intLanes=":t_0_0 :t_7_0 :t_7_1 :t_7_2 :t_16_0"/>

    <connection from="e_t" to="t_n" fromLane="0" toLane="0" via=":t_6_0" tl="tl_1" linkIndex="6" dir="r" state="o"/>
    <connection from="e_t" to="t_w" fromLane="0" toLane="0" via=":t_7_0" tl="tl_1" linkIndex="7" dir="s" state="o"/>
    <connection from="e_t" to="t_w" fromLane="1" toLane="1" via=":t_7_1" tl="tl_1" linkIndex="8" dir="s" state="o"/>
    <connection from="e_t" to="t_w" fromLane="2" toLane="2" via=":t_7_2" tl="tl_1" linkIndex="9" dir="s" state="o"/>
    <connection from="e_t" to="t_s" fromLane="2" toLane="2" via=":t_10_0" tl="tl_1" linkIndex="10" dir="l" state="o"/>
    <connection from="e_t" to="t_e" fromLane="2" toLane="2" via=":t_11_0" tl="tl_1" linkIndex="11" dir="t" state="o"/>
    <connection from="n_t" to="t_w" fromLane="0" toLane="0" via=":t_0_0" tl="tl_1" linkIndex="0" dir="r" state="O"/>
    <connection from="n_t" to="t_s" fromLane="0" toLane="0" via=":t_1_0" tl="tl_1" linkIndex="1" dir="s" state="O"/>
    <connection from="n_t" to="t_s" fromLane="1" toLane="1" via=":t_1_1" tl="tl_1" linkIndex="2" dir="s" state="O"/>
    <connection from="n_t" to="t_s" fromLane="2" toLane="2" via=":t_1_2" tl="tl_1" linkIndex="3" dir="s" state="O"/>
    <connection from="n_t" to="t_e" fromLane="2" toLane="2" via=":t_4_0" tl="tl_1" linkIndex="4" dir="l" state="o"/>
    <connection from="n_t" to="t_n" fromLane="2" toLane="2" via=":t_5_0" tl="tl_1" linkIndex="5" dir="t" state="o"/>
    <connection from="s_t" to="t_e" fromLane="0" toLane="0" via=":t_12_0" tl="tl_1" linkIndex="12" dir="r" state="O"/>
    <connection from="s_t" to="t_n" fromLane="0" toLane="0" via=":t_13_0" tl="tl_1" linkIndex="13" dir="s" state="O"/>
    <connection from="s_t" to="t_n" fromLane="1" toLane="1" via=":t_13_1" tl="tl_1" linkIndex="14" dir="s" state="O"/>
    <connection from="s_t" to="t_n" fromLane="2" toLane="2" via=":t_13_2" tl="tl_1" linkIndex="15" dir="s" state="O"/>
    <connection from="s_t" to="t_w" fromLane="2" toLane="2" via=":t_16_0" tl="tl_1" linkIndex="16" dir="l" state="o"/>
    <connection from="s_t" to="t_s" fromLane="2" toLane="2" via=":t_17_0" tl="tl_1" linkIndex="17" dir="t" state="o"/>
    <connection from="t_e" to="e_t" fromLane="2" toLane="2" via=":e_0_0" dir="t" state="M"/>
    <connection from="t_n" to="n_t" fromLane="2" toLane="2" via=":n_0_0" dir="t" state="M"/>
    <connection from="t_s" to="s_t" fromLane="2" toLane="2" via=":s_0_0" dir="t" state="M"/>
    <connection from="t_w" to="w_t" fromLane="2" toLane="2" via=":w_0_0" dir="t" state="M"/>
    <connection from="w_t" to="t_s" fromLane="0" toLane="0" via=":t_18_0" tl="tl_1" linkIndex="18" dir="r" state="o"/>
    <connection from="w_t" to="t_e" fromLane="0" toLane="0" via=":t_19_0" tl="tl_1" linkIndex="19" dir="s" state="o"/>
    <connection from="w_t" to="t_e" fromLane="1" toLane="1" via=":t_19_1" tl="tl_1" linkIndex="20" dir="s" state="o"/>
    <connection from="w_t" to="t_e" fromLane="2" toLane="2" via=":t_19_2" tl="tl_1" linkIndex="21" dir="s" state="o"/>
    <connection from="w_t" to="t_n" fromLane="2" toLane="2" via=":t_22_0" tl="tl_1" linkIndex="22" dir="l" state="o"/>
    <connection from="w_t" to="t_w" fromLane="2" toLane="2" via=":t_23_0" tl="tl_1" linkIndex="23" dir="t" state="o"/>

    <connection from=":e_0" to="e_t" fromLane="0" toLane="2" dir="t" state="M"/>
    <connection from=":n_0" to="n_t" fromLane="0" toLane="2" dir="t" state="M"/>
    <connection from=":s_0" to="s_t" fromLane="0" toLane="2" dir="t" state="M"/>
    <connection from=":t_0" to="t_w" fromLane="0" toLane="0" dir="r" state="M"/>
    <connection from=":t_1" to="t_s" fromLane="0" toLane="0" dir="s" state="M"/>
    <connection from=":t_1" to="t_s" fromLane="1" toLane="1" dir="s" state="M"/>
    <connection from=":t_1" to="t_s" fromLane="2" toLane="2" dir="s" state="M"/>
    <connection from=":t_4" to="t_e" fromLane="0" toLane="2" via=":t_24_0" dir="l" state="m"/>
    <connection from=":t_24" to="t_e" fromLane="0" toLane="2" dir="l" state="M"/>
    <connection from=":t_5" to="t_n" fromLane="0" toLane="2" via=":t_25_0" dir="t" state="m"/>
    <connection from=":t_25" to="t_n" fromLane="0" toLane="2" dir="t" state="M"/>
    <connection from=":t_6" to="t_n" fromLane="0" toLane="0" dir="r" state="M"/>
    <connection from=":t_7" to="t_w" fromLane="0" toLane="0" dir="s" state="M"/>
    <connection from=":t_7" to="t_w" fromLane="1" toLane="1" dir="s" state="M"/>
    <connection from=":t_7" to="t_w" fromLane="2" toLane="2" dir="s" state="M"/>
    <connection from=":t_10" to="t_s" fromLane="0" toLane="2" via=":t_26_0" dir="l" state="m"/>
    <connection from=":t_26" to="t_s" fromLane="0" toLane="2" dir="l" state="M"/>
    <connection from=":t_11" to="t_e" fromLane="0" toLane="2" via=":t_27_0" dir="t" state="m"/>
    <connection from=":t_27" to="t_e" fromLane="0" toLane="2" dir="t" state="M"/>
    <connection from=":t_12" to="t_e" fromLane="0" toLane="0" dir="r" state="M"/>
    <connection from=":t_13" to="t_n" fromLane="0" toLane="0" dir="s" state="M"/>
    <connection from=":t_13" to="t_n" fromLane="1" toLane="1" dir="s" state="M"/>
    <connection from=":t_13" to="t_n" fromLane="2" toLane="2" dir="s" state="M"/>
    <connection from=":t_16" to="t_w" fromLane="0" toLane="2" via=":t_28_0" dir="l" state="m"/>
    <connection from=":t_28" to="t_w" fromLane="0" toLane="2" dir="l" state="M"/>
    <connection from=":t_17" to="t_s" fromLane="0" toLane="2" via=":t_29_0" dir="t" state="m"/>
    <connection from=":t_29" to="t_s" fromLane="0" toLane="2" dir="t" state="M"/>
    <connection from=":t_18" to="t_s" fromLane="0" toLane="0" dir="r" state="M"/>
    <connection from=":t_19" to="t_e" fromLane="0" toLane="0" dir="s" state="M"/>
    <connection from=":t_19" to="t_e" fromLane="1" toLane="1" dir="s" state="M"/>
    <connection from=":t_19" to="t_e" fromLane="2" toLane="2" dir="s" state="M"/>
    <connection from=":t_22" to="t_n" fromLane="0" toLane="2" via=":t_30_0" dir="l" state="m"/>
    <connection from=":t_30" to="t_n" fromLane="0" toLane="2" dir="l" state="M"/>
    <connection from=":t_23" to="t_w" fromLane="0" toLane="2" via=":t_31_0" dir="t" state="m"/>
    <connection from=":t_31" to="t_w" fromLane="0" toLane="2" dir="t" state="M"/>
    <connection from=":w_0" to="w_t" fromLane="0" toLane="2" dir="t" state="M"/>

</net>
