<configuration>
    <input>
        <net-file value="cross.net.xml"/>
        <route-files value="cross.rou.xml"/>
    </input>
    <time>
        <begin value="0"/>
        <end value="20000"/>
    </time>
    <viewsettings>
        <scheme name="real world" />
    </viewsettings>
</configuration>
