<?xml version="1.0" encoding="UTF-8"?>

<!-- generated on 5/27/2021 11:43:32 AM by Eclipse SUMO netedit Version 1.9.0
<configuration xmlns:xsi="http://www.w3.org/2001/XMLSchema-instance" xsi:noNamespaceSchemaLocation="http://sumo.dlr.de/xsd/netconvertConfiguration.xsd">

    <input>
        <sumo-net-file value="C:\Users\James\Desktop\cologne\cologne8.net.xml"/>
    </input>

    <output>
        <output-file value="C:\Users\James\Desktop\cologne\cologne8.net.xml"/>
    </output>

    <processing>
        <geometry.min-radius.fix.railways value="false"/>
        <geometry.max-grade.fix value="false"/>
        <offset.disable-normalization value="true"/>
        <lefthand value="false"/>
    </processing>

    <junctions>
        <no-internal-links value="false"/>
        <no-turnarounds value="true"/>
        <junctions.corner-detail value="0"/>
        <junctions.limit-turn-speed value="-1"/>
        <rectangular-lane-cut value="false"/>
    </junctions>

    <pedestrian>
        <walkingareas value="false"/>
    </pedestrian>

    <report>
        <aggregate-warnings value="5"/>
    </report>

</configuration>
-->

<net version="1.9" xmlns:xsi="http://www.w3.org/2001/XMLSchema-instance" xsi:noNamespaceSchemaLocation="http://sumo.dlr.de/xsd/net_file.xsd">

    <location netOffset="-342498.65,-5630866.92" convBoundary="13565.01,16795.57,14657.34,18337.23" origBoundary="6.166558,50.735925,7.295276,51.840721" projParameter="+proj=utm +zone=32 +ellps=WGS84 +datum=WGS84 +units=m +no_defs"/>

    <type id="highway.bridleway" priority="1" numLanes="1" speed="2.78" allow="pedestrian" oneway="1" width="2.00"/>
    <type id="highway.bus_guideway" priority="1" numLanes="1" speed="13.89" allow="bus" oneway="1"/>
    <type id="highway.cycleway" priority="1" numLanes="1" speed="8.33" allow="bicycle" oneway="1" width="1.00"/>
    <type id="highway.footway" priority="1" numLanes="1" speed="2.78" allow="pedestrian" oneway="1" width="2.00"/>
    <type id="highway.ford" priority="1" numLanes="1" speed="2.78" allow="army" oneway="1"/>
    <type id="highway.living_street" priority="3" numLanes="1" speed="2.78" disallow="tram rail_urban rail rail_electric ship" oneway="1"/>
    <type id="highway.motorway" priority="13" numLanes="2" speed="27.78" allow="private emergency authority army vip passenger hov taxi bus coach delivery truck trailer motorcycle evehicle custom1 custom2" oneway="1"/>
    <type id="highway.motorway_link" priority="12" numLanes="1" speed="16.67" allow="private emergency authority army vip passenger hov taxi bus coach delivery truck trailer motorcycle evehicle custom1 custom2" oneway="1"/>
    <type id="highway.path" priority="1" numLanes="1" speed="2.78" allow="pedestrian bicycle" oneway="1" width="2.00"/>
    <type id="highway.pedestrian" priority="1" numLanes="1" speed="2.78" allow="pedestrian" oneway="1" width="2.00"/>
    <type id="highway.primary" priority="9" numLanes="2" speed="13.89" disallow="tram rail_urban rail rail_electric ship" oneway="1"/>
    <type id="highway.primary_link" priority="8" numLanes="1" speed="13.89" disallow="tram rail_urban rail rail_electric ship" oneway="1"/>
    <type id="highway.primary|railway.tram" priority="15" numLanes="2" speed="13.89" disallow="rail_urban rail rail_electric ship" oneway="1"/>
    <type id="highway.raceway" priority="14" numLanes="2" speed="83.33" allow="vip" oneway="1"/>
    <type id="highway.residential" priority="4" numLanes="1" speed="13.89" disallow="tram rail_urban rail rail_electric ship" oneway="1"/>
    <type id="highway.secondary" priority="7" numLanes="2" speed="13.89" disallow="tram rail_urban rail rail_electric ship" oneway="1"/>
    <type id="highway.secondary_link" priority="6" numLanes="1" speed="13.89" disallow="tram rail_urban rail rail_electric ship" oneway="1"/>
    <type id="highway.service" priority="2" numLanes="1" speed="5.56" allow="pedestrian delivery bicycle" oneway="1"/>
    <type id="highway.services" priority="1" numLanes="1" speed="8.33" disallow="tram rail_urban rail rail_electric ship" oneway="1"/>
    <type id="highway.service|railway.rail" priority="15" numLanes="1" speed="83.33" allow="pedestrian delivery bicycle rail rail_electric" oneway="1"/>
    <type id="highway.stairs" priority="1" numLanes="1" speed="1.39" allow="pedestrian" oneway="1" width="2.00"/>
    <type id="highway.step" priority="1" numLanes="1" speed="1.39" allow="pedestrian" oneway="1" width="2.00"/>
    <type id="highway.steps" priority="1" numLanes="1" speed="1.39" allow="pedestrian" oneway="1" width="2.00"/>
    <type id="highway.tertiary" priority="6" numLanes="1" speed="13.89" disallow="tram rail_urban rail rail_electric ship" oneway="1"/>
    <type id="highway.tertiary_link" priority="5" numLanes="1" speed="13.89" disallow="tram rail_urban rail rail_electric ship" oneway="1"/>
    <type id="highway.tertiary|railway.tram" priority="15" numLanes="1" speed="13.89" disallow="rail_urban rail rail_electric ship" oneway="1"/>
    <type id="highway.track" priority="1" numLanes="1" speed="5.56" disallow="tram rail_urban rail rail_electric ship" oneway="1"/>
    <type id="highway.trunk" priority="11" numLanes="2" speed="13.89" disallow="pedestrian bicycle tram rail_urban rail rail_electric ship" oneway="1"/>
    <type id="highway.trunk_link" priority="10" numLanes="1" speed="13.89" disallow="pedestrian bicycle tram rail_urban rail rail_electric ship" oneway="1"/>
    <type id="highway.unclassified" priority="5" numLanes="1" speed="13.89" disallow="tram rail_urban rail rail_electric ship" oneway="1"/>
    <type id="highway.unsurfaced" priority="1" numLanes="1" speed="8.33" disallow="tram rail_urban rail rail_electric ship" oneway="1"/>
    <type id="railway.light_rail" priority="15" numLanes="1" speed="27.78" allow="rail_urban" oneway="1"/>
    <type id="railway.preserved" priority="15" numLanes="1" speed="27.78" allow="rail" oneway="1"/>
    <type id="railway.rail" priority="15" numLanes="1" speed="83.33" allow="rail rail_electric" oneway="1"/>
    <type id="railway.subway" priority="15" numLanes="1" speed="27.78" allow="rail_urban" oneway="1"/>
    <type id="railway.tram" priority="15" numLanes="1" speed="13.89" allow="tram" oneway="1"/>

    <edge id=":1679948677_0" function="internal">
        <lane id=":1679948677_0_0" index="0" disallow="tram rail_urban rail rail_electric rail_fast ship" speed="8.33" length="4.67" shape="14595.03,17240.95 14593.66,17240.50 14593.06,17239.84 14593.23,17238.96 14594.17,17237.87"/>
    </edge>
    <edge id=":1679948681_0" function="internal">
        <lane id=":1679948681_0_0" index="0" disallow="tram rail_urban rail rail_electric rail_fast ship" speed="13.89" length="8.02" shape="14174.16,17237.30 14173.50,17229.30"/>
    </edge>
    <edge id=":1679948681_1" function="internal">
        <lane id=":1679948681_1_0" index="0" disallow="tram rail_urban rail rail_electric rail_fast ship" speed="13.89" length="2.34" shape="14174.16,17237.30 14174.85,17236.04 14175.61,17235.57"/>
    </edge>
    <edge id=":1679948681_5" function="internal">
        <lane id=":1679948681_5_0" index="0" disallow="tram rail_urban rail rail_electric rail_fast ship" speed="13.89" length="2.34" shape="14175.61,17235.57 14176.44,17235.89 14177.35,17237.02"/>
    </edge>
    <edge id=":1679948681_2" function="internal">
        <lane id=":1679948681_2_0" index="0" disallow="tram rail_urban rail rail_electric rail_fast ship" speed="13.89" length="8.37" shape="14176.70,17229.07 14177.38,17231.47 14178.59,17232.90 14179.82,17234.34 14180.53,17236.74"/>
        <lane id=":1679948681_2_1" index="1" disallow="tram rail_urban rail rail_electric rail_fast ship" speed="13.89" length="8.37" shape="14176.70,17229.07 14177.35,17237.02"/>
    </edge>
    <edge id=":1679948681_4" function="internal">
        <lane id=":1679948681_4_0" index="0" disallow="tram rail_urban rail rail_electric rail_fast ship" speed="13.89" length="2.34" shape="14176.70,17229.07 14175.99,17230.32 14175.22,17230.78"/>
    </edge>
    <edge id=":1679948681_6" function="internal">
        <lane id=":1679948681_6_0" index="0" disallow="tram rail_urban rail rail_electric rail_fast ship" speed="13.89" length="2.34" shape="14175.22,17230.78 14174.39,17230.44 14173.50,17229.30"/>
    </edge>
    <edge id=":2340562483_0" function="internal">
        <lane id=":2340562483_0_0" index="0" disallow="tram rail_urban rail rail_electric rail_fast ship" speed="11.11" length="3.15" shape="14648.00,17225.97 14647.81,17225.09 14647.40,17224.56 14646.75,17224.39 14645.87,17224.56"/>
    </edge>
    <edge id=":2340562483_1" function="internal">
        <lane id=":2340562483_1_0" index="0" disallow="tram rail_urban rail rail_electric rail_fast ship" speed="13.89" length="4.67" shape="14648.00,17225.97 14648.72,17224.72 14649.49,17224.28 14650.32,17224.62 14651.19,17225.77"/>
    </edge>
    <edge id=":2340562483_2" function="internal">
        <lane id=":2340562483_2_0" index="0" disallow="tram rail_urban rail rail_electric rail_fast ship" speed="11.11" length="9.44" shape="14644.80,17221.55 14647.45,17221.01 14649.39,17221.54 14650.64,17223.13 14651.19,17225.77"/>
    </edge>
    <edge id=":2340562483_3" function="internal">
        <lane id=":2340562483_3_0" index="0" disallow="tram rail_urban rail rail_electric rail_fast ship" speed="8.33" length="4.67" shape="14644.80,17221.55 14646.20,17221.90 14646.84,17222.52 14646.73,17223.41 14645.87,17224.56"/>
    </edge>
    <edge id=":247379907_0" function="internal">
        <lane id=":247379907_0_0" index="0" disallow="tram rail_urban rail rail_electric rail_fast ship" speed="11.11" length="21.93" shape="14064.92,18084.58 14061.48,18081.27 14057.03,18078.96 14051.55,18077.65 14045.05,18077.34"/>
    </edge>
    <edge id=":247379907_1" function="internal">
        <lane id=":247379907_1_0" index="0" disallow="tram rail_urban rail rail_electric rail_fast ship" speed="8.33" length="28.54" shape="14064.92,18084.58 14061.35,18079.93 14056.26,18073.23 14051.24,18066.49 14047.88,18061.69"/>
    </edge>
    <edge id=":247379907_2" function="internal">
        <lane id=":247379907_2_0" index="0" disallow="tram rail_urban rail rail_electric rail_fast ship" speed="11.11" length="8.63" shape="14064.92,18084.58 14061.24,18078.47 14061.12,18076.98"/>
    </edge>
    <edge id=":247379907_3" function="internal">
        <lane id=":247379907_3_0" index="0" disallow="tram rail_urban rail rail_electric rail_fast ship" speed="8.33" length="2.34" shape="14064.92,18084.58 14064.82,18083.14 14065.21,18082.34"/>
    </edge>
    <edge id=":247379907_18" function="internal">
        <lane id=":247379907_18_0" index="0" disallow="tram rail_urban rail rail_electric rail_fast ship" speed="11.11" length="13.31" shape="14061.12,18076.98 14060.89,18074.08 14063.87,18071.40 14070.19,18070.43"/>
    </edge>
    <edge id=":247379907_19" function="internal">
        <lane id=":247379907_19_0" index="0" disallow="tram rail_urban rail rail_electric rail_fast ship" speed="8.33" length="2.34" shape="14065.21,18082.34 14066.09,18082.17 14067.45,18082.63"/>
    </edge>
    <edge id=":247379907_4" function="internal">
        <lane id=":247379907_4_0" index="0" disallow="tram rail_urban rail rail_electric rail_fast ship" speed="11.11" length="9.40" shape="14070.27,18076.83 14067.40,18077.23 14065.97,18078.33 14065.99,18080.13 14067.45,18082.63"/>
    </edge>
    <edge id=":247379907_5" function="internal">
        <lane id=":247379907_5_0" index="0" disallow="tram rail_urban rail rail_electric rail_fast ship" speed="13.89" length="25.24" shape="14070.27,18076.83 14045.05,18077.34"/>
        <lane id=":247379907_5_1" index="1" disallow="tram rail_urban rail rail_electric rail_fast ship" speed="13.89" length="25.24" shape="14070.23,18073.63 14044.97,18074.14"/>
    </edge>
    <edge id=":247379907_7" function="internal">
        <lane id=":247379907_7_0" index="0" disallow="tram rail_urban rail rail_electric rail_fast ship" speed="11.11" length="9.09" shape="14070.23,18073.63 14063.34,18072.96 14061.31,18072.21"/>
    </edge>
    <edge id=":247379907_8" function="internal">
        <lane id=":247379907_8_0" index="0" disallow="tram rail_urban rail rail_electric rail_fast ship" speed="13.89" length="2.34" shape="14070.23,18073.63 14069.02,18072.85 14068.61,18072.05"/>
    </edge>
    <edge id=":247379907_20" function="internal">
        <lane id=":247379907_20_0" index="0" disallow="tram rail_urban rail rail_electric rail_fast ship" speed="11.11" length="17.44" shape="14061.31,18072.21 14057.32,18070.74 14052.17,18066.99 14047.88,18061.69"/>
    </edge>
    <edge id=":247379907_21" function="internal">
        <lane id=":247379907_21_0" index="0" disallow="tram rail_urban rail rail_electric rail_fast ship" speed="13.89" length="2.34" shape="14068.61,18072.05 14069.00,18071.25 14070.19,18070.43"/>
    </edge>
    <edge id=":247379907_9" function="internal">
        <lane id=":247379907_9_0" index="0" disallow="tram rail_urban rail rail_electric rail_fast ship" speed="11.11" length="21.96" shape="14050.44,18059.75 14053.50,18063.10 14057.80,18065.46 14063.35,18066.84 14070.14,18067.23"/>
    </edge>
    <edge id=":247379907_10" function="internal">
        <lane id=":247379907_10_0" index="0" disallow="tram rail_urban rail rail_electric rail_fast ship" speed="8.33" length="28.52" shape="14050.44,18059.75 14053.80,18064.55 14058.81,18071.29 14063.89,18077.98 14067.45,18082.63"/>
    </edge>
    <edge id=":247379907_11" function="internal">
        <lane id=":247379907_11_0" index="0" disallow="tram rail_urban rail rail_electric rail_fast ship" speed="11.11" length="7.71" shape="14050.44,18059.75 14053.43,18065.90 14053.45,18066.77"/>
    </edge>
    <edge id=":247379907_12" function="internal">
        <lane id=":247379907_12_0" index="0" disallow="tram rail_urban rail rail_electric rail_fast ship" speed="8.33" length="2.34" shape="14050.44,18059.75 14050.53,18061.20 14050.13,18062.00"/>
    </edge>
    <edge id=":247379907_22" function="internal">
        <lane id=":247379907_22_0" index="0" disallow="tram rail_urban rail rail_electric rail_fast ship" speed="11.11" length="13.34" shape="14053.45,18066.77 14053.52,18070.35 14050.69,18073.09 14044.97,18074.14"/>
    </edge>
    <edge id=":247379907_23" function="internal">
        <lane id=":247379907_23_0" index="0" disallow="tram rail_urban rail rail_electric rail_fast ship" speed="8.33" length="2.34" shape="14050.13,18062.00 14049.25,18062.17 14047.88,18061.69"/>
    </edge>
    <edge id=":247379907_13" function="internal">
        <lane id=":247379907_13_0" index="0" disallow="tram rail_urban rail rail_electric rail_fast ship" speed="11.11" length="9.34" shape="14044.79,18067.74 14047.54,18067.29 14048.97,18066.14 14049.08,18064.27 14047.88,18061.69"/>
    </edge>
    <edge id=":247379907_14" function="internal">
        <lane id=":247379907_14_0" index="0" disallow="tram rail_urban rail rail_electric rail_fast ship" speed="13.89" length="25.33" shape="14044.79,18067.74 14070.14,18067.23"/>
        <lane id=":247379907_14_1" index="1" disallow="tram rail_urban rail rail_electric rail_fast ship" speed="13.89" length="25.33" shape="14044.88,18070.94 14070.19,18070.43"/>
    </edge>
    <edge id=":247379907_16" function="internal">
        <lane id=":247379907_16_0" index="0" disallow="tram rail_urban rail rail_electric rail_fast ship" speed="11.11" length="8.87" shape="14044.88,18070.94 14051.29,18071.53 14053.57,18072.37"/>
    </edge>
    <edge id=":247379907_17" function="internal">
        <lane id=":247379907_17_0" index="0" disallow="tram rail_urban rail rail_electric rail_fast ship" speed="13.89" length="2.34" shape="14044.88,18070.94 14046.10,18071.71 14046.52,18072.49"/>
    </edge>
    <edge id=":247379907_24" function="internal">
        <lane id=":247379907_24_0" index="0" disallow="tram rail_urban rail rail_electric rail_fast ship" speed="11.11" length="17.55" shape="14053.57,18072.37 14057.19,18073.68 14062.58,18077.38 14067.45,18082.63"/>
    </edge>
    <edge id=":247379907_25" function="internal">
        <lane id=":247379907_25_0" index="0" disallow="tram rail_urban rail rail_electric rail_fast ship" speed="13.89" length="2.34" shape="14046.52,18072.49 14046.14,18073.31 14044.97,18074.14"/>
    </edge>
    <edge id=":247379910_0" function="internal">
        <lane id=":247379910_0_0" index="0" disallow="tram rail_urban rail rail_electric rail_fast ship" speed="13.89" length="4.67" shape="14295.12,18337.07 14294.45,18338.34 14293.69,18338.82 14292.85,18338.50 14291.94,18337.39"/>
    </edge>
    <edge id=":247380547_0" function="internal">
        <lane id=":247380547_0_0" index="0" disallow="tram rail_urban rail rail_electric rail_fast ship" speed="8.33" length="11.26" shape="14050.31,17402.14 14039.05,17402.32"/>
    </edge>
    <edge id=":247380547_1" function="internal">
        <lane id=":247380547_1_0" index="0" disallow="tram rail_urban rail rail_electric rail_fast ship" speed="8.33" length="9.04" shape="14044.28,17396.59 14044.15,17399.10 14043.24,17400.89 14041.54,17401.96 14039.05,17402.32"/>
    </edge>
    <edge id=":247380550_0" function="internal">
        <lane id=":247380550_0_0" index="0" disallow="tram rail_urban rail rail_electric rail_fast ship" speed="8.33" length="8.46" shape="13961.27,16963.35 13962.98,16962.76 13964.53,16963.25 13965.90,16964.84 13967.10,16967.51"/>
    </edge>
    <edge id=":247380550_1" function="internal">
        <lane id=":247380550_1_0" index="0" disallow="tram rail_urban rail rail_electric rail_fast ship" speed="8.33" length="4.67" shape="13961.27,16963.35 13962.71,16963.39 13963.47,16963.85 13963.56,16964.74 13962.97,16966.06"/>
    </edge>
    <edge id=":247380551_0" function="internal">
        <lane id=":247380551_0_0" index="0" disallow="tram rail_urban rail rail_electric rail_fast ship" speed="8.33" length="9.04" shape="14030.75,17210.83 14028.36,17211.45 14026.73,17212.68 14025.88,17214.54 14025.80,17217.03"/>
    </edge>
    <edge id=":247380551_1" function="internal">
        <lane id=":247380551_1_0" index="0" disallow="tram rail_urban rail rail_electric rail_fast ship" speed="8.33" length="11.27" shape="14030.75,17210.83 14019.55,17212.14"/>
    </edge>
    <edge id=":247380551_2" function="internal">
        <lane id=":247380551_2_0" index="0" disallow="tram rail_urban rail rail_electric rail_fast ship" speed="8.33" length="2.34" shape="14030.75,17210.83 14029.47,17210.17 14028.98,17209.41"/>
    </edge>
    <edge id=":247380551_9" function="internal">
        <lane id=":247380551_9_0" index="0" disallow="tram rail_urban rail rail_electric rail_fast ship" speed="8.33" length="2.34" shape="14028.98,17209.41 14029.29,17208.58 14030.40,17207.65"/>
    </edge>
    <edge id=":247380551_3" function="internal">
        <lane id=":247380551_3_0" index="0" disallow="tram rail_urban rail rail_electric rail_fast ship" speed="8.33" length="9.25" shape="14023.88,17202.69 14024.62,17205.09 14025.95,17206.72 14027.88,17207.57 14030.40,17207.65"/>
    </edge>
    <edge id=":247380551_4" function="internal">
        <lane id=":247380551_4_0" index="0" disallow="tram rail_urban rail rail_electric rail_fast ship" speed="8.33" length="14.47" shape="14023.88,17202.69 14025.80,17217.03"/>
    </edge>
    <edge id=":247380551_5" function="internal">
        <lane id=":247380551_5_0" index="0" disallow="tram rail_urban rail rail_electric rail_fast ship" speed="8.33" length="11.78" shape="14023.88,17202.69 14024.13,17206.56 14023.49,17209.42 14021.97,17211.28 14019.55,17212.14"/>
    </edge>
    <edge id=":247380551_6" function="internal">
        <lane id=":247380551_6_0" index="0" disallow="tram rail_urban rail rail_electric rail_fast ship" speed="8.33" length="11.32" shape="14019.16,17208.96 14030.40,17207.65"/>
    </edge>
    <edge id=":247380551_7" function="internal">
        <lane id=":247380551_7_0" index="0" disallow="tram rail_urban rail rail_electric rail_fast ship" speed="8.33" length="4.13" shape="14019.16,17208.96 14021.71,17209.20 14022.98,17210.13"/>
    </edge>
    <edge id=":247380551_8" function="internal">
        <lane id=":247380551_8_0" index="0" disallow="tram rail_urban rail rail_electric rail_fast ship" speed="8.33" length="2.34" shape="14019.16,17208.96 14020.45,17209.61 14020.95,17210.36"/>
    </edge>
    <edge id=":247380551_10" function="internal">
        <lane id=":247380551_10_0" index="0" disallow="tram rail_urban rail rail_electric rail_fast ship" speed="8.33" length="7.66" shape="14022.98,17210.13 14023.66,17210.63 14025.03,17213.24 14025.80,17217.03"/>
    </edge>
    <edge id=":247380551_11" function="internal">
        <lane id=":247380551_11_0" index="0" disallow="tram rail_urban rail rail_electric rail_fast ship" speed="8.33" length="2.34" shape="14020.95,17210.36 14020.65,17211.20 14019.55,17212.14"/>
    </edge>
    <edge id=":252015689_0" function="internal">
        <lane id=":252015689_0_0" index="0" disallow="tram rail_urban rail rail_electric rail_fast ship" speed="2.78" length="4.67" shape="13685.91,17442.75 13684.88,17443.75 13684.01,17443.97 13683.31,17443.41 13682.79,17442.07"/>
    </edge>
    <edge id=":252016270_0" function="internal">
        <lane id=":252016270_0_0" index="0" disallow="tram rail_urban rail rail_electric rail_fast ship" speed="8.33" length="9.17" shape="13891.69,17140.80 13890.98,17138.44 13889.66,17136.86 13887.73,17136.05 13885.18,17136.02"/>
    </edge>
    <edge id=":252016270_1" function="internal">
        <lane id=":252016270_1_0" index="0" disallow="tram rail_urban rail rail_electric rail_fast ship" speed="8.33" length="11.29" shape="13891.69,17140.80 13891.21,17137.66 13890.76,17135.23 13890.20,17132.82 13889.40,17129.75"/>
    </edge>
    <edge id=":252016270_2" function="internal">
        <lane id=":252016270_2_0" index="0" disallow="tram rail_urban rail rail_electric rail_fast ship" speed="8.33" length="8.89" shape="13891.69,17140.80 13891.68,17138.35 13892.47,17136.51 13894.03,17135.26 13896.39,17134.61"/>
    </edge>
    <edge id=":252016271_0" function="internal">
        <lane id=":252016271_0_0" index="0" disallow="tram rail_urban rail rail_electric rail_fast ship" speed="11.11" length="8.48" shape="13805.47,17145.87 13803.10,17146.44 13801.36,17147.50 13800.24,17149.05 13799.76,17151.08"/>
    </edge>
    <edge id=":252016271_1" function="internal">
        <lane id=":252016271_1_0" index="0" disallow="tram rail_urban rail rail_electric rail_fast ship" speed="11.11" length="11.49" shape="13805.47,17145.87 13801.74,17145.94 13799.15,17145.08 13797.70,17143.29 13797.40,17140.58"/>
    </edge>
    <edge id=":252016271_2" function="internal">
        <lane id=":252016271_2_0" index="0" disallow="tram rail_urban rail rail_electric rail_fast ship" speed="13.89" length="10.26" shape="13800.59,17140.85 13799.76,17151.08"/>
    </edge>
    <edge id=":252016271_3" function="internal">
        <lane id=":252016271_3_0" index="0" disallow="tram rail_urban rail rail_electric rail_fast ship" speed="13.89" length="2.34" shape="13800.59,17140.85 13799.69,17141.98 13798.86,17142.31"/>
    </edge>
    <edge id=":252016271_6" function="internal">
        <lane id=":252016271_6_0" index="0" disallow="tram rail_urban rail rail_electric rail_fast ship" speed="13.89" length="2.34" shape="13798.86,17142.31 13798.10,17141.84 13797.40,17140.58"/>
    </edge>
    <edge id=":252016271_4" function="internal">
        <lane id=":252016271_4_0" index="0" disallow="tram rail_urban rail rail_electric rail_fast ship" speed="13.89" length="10.29" shape="13796.56,17150.84 13797.40,17140.58"/>
    </edge>
    <edge id=":252016271_5" function="internal">
        <lane id=":252016271_5_0" index="0" disallow="tram rail_urban rail rail_electric rail_fast ship" speed="13.89" length="2.34" shape="13796.56,17150.84 13797.45,17149.70 13798.28,17149.37"/>
    </edge>
    <edge id=":252016271_7" function="internal">
        <lane id=":252016271_7_0" index="0" disallow="tram rail_urban rail rail_electric rail_fast ship" speed="13.89" length="2.34" shape="13798.28,17149.37 13799.05,17149.83 13799.76,17151.08"/>
    </edge>
    <edge id=":252016273_0" function="internal">
        <lane id=":252016273_0_0" index="0" disallow="tram rail_urban rail rail_electric rail_fast ship" speed="8.33" length="9.04" shape="13922.92,17390.55 13920.41,17390.61 13918.60,17391.47 13917.48,17393.14 13917.05,17395.62"/>
    </edge>
    <edge id=":252016273_1" function="internal">
        <lane id=":252016273_1_0" index="0" disallow="tram rail_urban rail rail_electric rail_fast ship" speed="8.33" length="14.46" shape="13922.92,17390.55 13908.54,17389.02"/>
    </edge>
    <edge id=":252016273_2" function="internal">
        <lane id=":252016273_2_0" index="0" disallow="tram rail_urban rail rail_electric rail_fast ship" speed="8.33" length="11.15" shape="13922.92,17390.55 13919.70,17389.80 13917.36,17388.43 13915.90,17386.44 13915.32,17383.83"/>
    </edge>
    <edge id=":252016273_3" function="internal">
        <lane id=":252016273_3_0" index="0" disallow="tram rail_urban rail rail_electric rail_fast ship" speed="8.33" length="9.45" shape="13913.85,17395.53 13913.58,17392.87 13912.60,17390.90 13910.92,17389.61 13908.54,17389.02"/>
    </edge>
    <edge id=":252016273_4" function="internal">
        <lane id=":252016273_4_0" index="0" disallow="tram rail_urban rail rail_electric rail_fast ship" speed="8.33" length="11.82" shape="13913.85,17395.53 13914.17,17392.30 13914.73,17389.68 13915.21,17387.06 13915.32,17383.83"/>
    </edge>
    <edge id=":252016273_5" function="internal">
        <lane id=":252016273_5_0" index="0" disallow="tram rail_urban rail rail_electric rail_fast ship" speed="8.33" length="4.67" shape="13913.85,17395.53 13914.68,17394.35 13915.49,17393.97 13916.28,17394.39 13917.05,17395.62"/>
    </edge>
    <edge id=":252016274_0" function="internal">
        <lane id=":252016274_0_0" index="0" disallow="tram rail_urban rail rail_electric rail_fast ship" speed="8.33" length="9.04" shape="13904.59,17232.05 13904.02,17229.62 13902.81,17228.00 13900.95,17227.21 13898.45,17227.23"/>
    </edge>
    <edge id=":252016274_1" function="internal">
        <lane id=":252016274_1_0" index="0" disallow="tram rail_urban rail rail_electric rail_fast ship" speed="8.33" length="14.49" shape="13904.59,17232.05 13902.91,17217.66"/>
    </edge>
    <edge id=":252016274_2" function="internal">
        <lane id=":252016274_2_0" index="0" disallow="tram rail_urban rail rail_electric rail_fast ship" speed="8.33" length="11.82" shape="13904.59,17232.05 13904.59,17228.13 13905.36,17225.23 13906.91,17223.36 13909.24,17222.53"/>
    </edge>
    <edge id=":252016274_3" function="internal">
        <lane id=":252016274_3_0" index="0" disallow="tram rail_urban rail rail_electric rail_fast ship" speed="8.33" length="11.27" shape="13909.62,17225.70 13898.45,17227.23"/>
    </edge>
    <edge id=":252016274_4" function="internal">
        <lane id=":252016274_4_0" index="0" disallow="tram rail_urban rail rail_electric rail_fast ship" speed="8.33" length="3.92" shape="13909.62,17225.70 13907.16,17225.44 13906.00,17224.59"/>
    </edge>
    <edge id=":252016274_5" function="internal">
        <lane id=":252016274_5_0" index="0" disallow="tram rail_urban rail rail_electric rail_fast ship" speed="8.33" length="2.34" shape="13909.62,17225.70 13908.33,17225.05 13907.84,17224.30"/>
    </edge>
    <edge id=":252016274_9" function="internal">
        <lane id=":252016274_9_0" index="0" disallow="tram rail_urban rail rail_electric rail_fast ship" speed="8.33" length="7.78" shape="13906.00,17224.59 13905.22,17224.02 13903.81,17221.42 13902.91,17217.66"/>
    </edge>
    <edge id=":252016274_10" function="internal">
        <lane id=":252016274_10_0" index="0" disallow="tram rail_urban rail rail_electric rail_fast ship" speed="8.33" length="2.34" shape="13907.84,17224.30 13908.14,17223.46 13909.24,17222.53"/>
    </edge>
    <edge id=":252016274_6" function="internal">
        <lane id=":252016274_6_0" index="0" disallow="tram rail_urban rail rail_electric rail_fast ship" speed="8.33" length="9.22" shape="13897.96,17224.07 13900.43,17223.34 13902.08,17222.03 13902.91,17220.13 13902.91,17217.66"/>
    </edge>
    <edge id=":252016274_7" function="internal">
        <lane id=":252016274_7_0" index="0" disallow="tram rail_urban rail rail_electric rail_fast ship" speed="8.33" length="11.38" shape="13897.96,17224.07 13909.24,17222.53"/>
    </edge>
    <edge id=":252016274_8" function="internal">
        <lane id=":252016274_8_0" index="0" disallow="tram rail_urban rail rail_electric rail_fast ship" speed="8.33" length="2.34" shape="13897.96,17224.07 13899.27,17224.68 13899.79,17225.41"/>
    </edge>
    <edge id=":252016274_11" function="internal">
        <lane id=":252016274_11_0" index="0" disallow="tram rail_urban rail rail_electric rail_fast ship" speed="8.33" length="2.34" shape="13899.79,17225.41 13899.52,17226.26 13898.45,17227.23"/>
    </edge>
    <edge id=":252016275_0" function="internal">
        <lane id=":252016275_0_0" index="0" disallow="tram rail_urban rail rail_electric rail_fast ship" speed="8.33" length="4.67" shape="13838.68,17057.90 13837.24,17058.02 13836.43,17057.65 13836.24,17056.77 13836.68,17055.40"/>
    </edge>
    <edge id=":252016277_0" function="internal">
        <lane id=":252016277_0_0" index="0" disallow="tram rail_urban rail rail_electric rail_fast ship" speed="8.33" length="9.14" shape="13866.21,17043.55 13865.17,17041.08 13863.70,17039.89 13861.81,17039.98 13859.50,17041.34"/>
    </edge>
    <edge id=":252016277_1" function="internal">
        <lane id=":252016277_1_0" index="0" disallow="tram rail_urban rail rail_electric rail_fast ship" speed="8.33" length="11.80" shape="13866.21,17043.55 13865.54,17039.90 13865.63,17036.86 13866.50,17034.42 13868.14,17032.59"/>
    </edge>
    <edge id=":252016277_2" function="internal">