<?xml version="1.0" encoding="UTF-8"?>

<!-- generated on 2025-03-07 09:53:45 by Eclipse SUMO netedit Version 1.20.0
<configuration xmlns:xsi="http://www.w3.org/2001/XMLSchema-instance" xsi:noNamespaceSchemaLocation="http://sumo.dlr.de/xsd/neteditConfiguration.xsd">

    <input>
        <sumocfg-file value="/home/refo/Documents/Github/marl/scenarios/jinan_3_4/simulation.sumocfg"/>
        <additional-files value=""/>
        <route-files value="/home/refo/Documents/Github/marl/scenarios/jinan_3_4/routes.rou.xml"/>
        <sumo-net-file value="/home/refo/Documents/Github/marl/scenarios/jinan_3_4/network.net.xml"/>
    </input>

    <output>
        <output-file value="/home/refo/Documents/Github/marl/scenarios/jinan_3_4/network.net.xml"/>
    </output>

    <processing>
        <geometry.min-radius.fix.railways value="false"/>
        <geometry.max-grade.fix value="false"/>
        <offset.disable-normalization value="true"/>
        <lefthand value="0"/>
    </processing>

    <junctions>
        <no-turnarounds value="true"/>
        <junctions.corner-detail value="5"/>
        <junctions.limit-turn-speed value="5.50"/>
        <rectangular-lane-cut value="0"/>
    </junctions>

    <pedestrian>
        <walkingareas value="0"/>
    </pedestrian>

</configuration>
-->

<net version="1.20" junctionCornerDetail="5" limitTurnSpeed="5.50" xmlns:xsi="http://www.w3.org/2001/XMLSchema-instance" xsi:noNamespaceSchemaLocation="http://sumo.dlr.de/xsd/net_file.xsd">

    <location netOffset="0.00,0.00" convBoundary="-400.00,-800.00,1600.06,2400.03" origBoundary="-400.00,-800.00,1600.00,2400.00" projParameter="!"/>

    <edge id=":intersection_1_1_0" function="internal">
        <lane id=":intersection_1_1_0_0" index="0" speed="6.51" length="9.03" shape="-8.00,13.60 -8.35,11.15 -9.40,9.40 -11.15,8.35 -13.60,8.00"/>
        <lane id=":intersection_1_1_0_1" index="1" speed="7.33" length="11.73" shape="-8.00,13.60 -8.35,9.75 -9.40,7.00 -11.15,5.35 -13.60,4.80"/>
        <lane id=":intersection_1_1_0_2" index="2" speed="8.10" length="14.57" shape="-8.00,13.60 -8.35,8.35 -9.40,4.60 -11.15,2.35 -13.60,1.60"/>
    </edge>
    <edge id=":intersection_1_1_3" function="internal">
        <lane id=":intersection_1_1_3_0" index="0" speed="11.11" length="27.37" shape="-4.80,13.60 -5.30,5.50 -6.40,0.00 -7.50,-5.50 -8.00,-13.60"/>
        <lane id=":intersection_1_1_3_1" index="1" speed="11.11" length="27.37" shape="-4.80,13.60 -4.80,-13.60"/>
        <lane id=":intersection_1_1_3_2" index="2" speed="11.11" length="27.37" shape="-4.80,13.60 -4.30,5.50 -3.20,-0.00 -2.10,-5.50 -1.60,-13.60"/>
    </edge>
    <edge id=":intersection_1_1_6" function="internal">
        <lane id=":intersection_1_1_6_0" index="0" speed="11.11" length="22.18" shape="-1.60,13.60 -0.65,4.15 2.20,-2.60 6.27,-6.07"/>
        <lane id=":intersection_1_1_6_1" index="1" speed="10.88" length="20.74" shape="-1.60,13.60 -0.65,5.55 2.20,-0.20 6.95,-3.65 7.29,-3.71"/>
        <lane id=":intersection_1_1_6_2" index="2" speed="10.36" length="21.49" shape="-1.60,13.60 -0.65,6.95 2.20,2.20 6.95,-0.65 10.61,-1.17"/>
    </edge>
    <edge id=":intersection_1_1_36" function="internal">
        <lane id=":intersection_1_1_36_0" index="0" speed="11.11" length="7.68" shape="6.27,-6.07 6.95,-6.65 13.60,-8.00"/>
    </edge>
    <edge id=":intersection_1_1_37" function="internal">
        <lane id=":intersection_1_1_37_0" index="0" speed="10.88" length="6.40" shape="7.29,-3.71 13.60,-4.80"/>
    </edge>
    <edge id=":intersection_1_1_38" function="internal">
        <lane id=":intersection_1_1_38_0" index="0" speed="10.36" length="3.02" shape="10.61,-1.17 13.60,-1.60"/>
    </edge>
    <edge id=":intersection_1_1_9" function="internal">
        <lane id=":intersection_1_1_9_0" index="0" speed="6.51" length="9.03" shape="13.60,8.00 11.15,8.35 9.40,9.40 8.35,11.15 8.00,13.60"/>
        <lane id=":intersection_1_1_9_1" index="1" speed="7.33" length="11.73" shape="13.60,8.00 9.75,8.35 7.00,9.40 5.35,11.15 4.80,13.60"/>
        <lane id=":intersection_1_1_9_2" index="2" speed="8.10" length="14.57" shape="13.60,8.00 8.35,8.35 4.60,9.40 2.35,11.15 1.60,13.60"/>
    </edge>
    <edge id=":intersection_1_1_12" function="internal">
        <lane id=":intersection_1_1_12_0" index="0" speed="11.11" length="27.37" shape="13.60,4.80 5.50,5.30 0.00,6.40 -5.50,7.50 -13.60,8.00"/>
        <lane id=":intersection_1_1_12_1" index="1" speed="11.11" length="27.37" shape="13.60,4.80 -13.60,4.80"/>
        <lane id=":intersection_1_1_12_2" index="2" speed="11.11" length="27.37" shape="13.60,4.80 5.50,4.30 -0.00,3.20 -5.50,2.10 -13.60,1.60"/>
    </edge>
    <edge id=":intersection_1_1_15" function="internal">
        <lane id=":intersection_1_1_15_0" index="0" speed="11.11" length="22.18" shape="13.60,1.60 4.15,0.65 -2.60,-2.20 -6.07,-6.27"/>
        <lane id=":intersection_1_1_15_1" index="1" speed="10.88" length="20.74" shape="13.60,1.60 5.55,0.65 -0.20,-2.20 -3.65,-6.95 -3.71,-7.29"/>
        <lane id=":intersection_1_1_15_2" index="2" speed="10.36" length="21.49" shape="13.60,1.60 6.95,0.65 2.20,-2.20 -0.65,-6.95 -1.17,-10.61"/>
    </edge>
    <edge id=":intersection_1_1_39" function="internal">
        <lane id=":intersection_1_1_39_0" index="0" speed="11.11" length="7.68" shape="-6.07,-6.27 -6.65,-6.95 -8.00,-13.60"/>
    </edge>
    <edge id=":intersection_1_1_40" function="internal">
        <lane id=":intersection_1_1_40_0" index="0" speed="10.88" length="6.40" shape="-3.71,-7.29 -4.80,-13.60"/>
    </edge>
    <edge id=":intersection_1_1_41" function="internal">
        <lane id=":intersection_1_1_41_0" index="0" speed="10.36" length="3.02" shape="-1.17,-10.61 -1.60,-13.60"/>
    </edge>
    <edge id=":intersection_1_1_18" function="internal">
        <lane id=":intersection_1_1_18_0" index="0" speed="6.51" length="9.03" shape="8.00,-13.60 8.35,-11.15 9.40,-9.40 11.15,-8.35 13.60,-8.00"/>
        <lane id=":intersection_1_1_18_1" index="1" speed="7.33" length="11.73" shape="8.00,-13.60 8.35,-9.75 9.40,-7.00 11.15,-5.35 13.60,-4.80"/>
        <lane id=":intersection_1_1_18_2" index="2" speed="8.10" length="14.57" shape="8.00,-13.60 8.35,-8.35 9.40,-4.60 11.15,-2.35 13.60,-1.60"/>
    </edge>
    <edge id=":intersection_1_1_21" function="internal">
        <lane id=":intersection_1_1_21_0" index="0" speed="11.11" length="27.37" shape="4.80,-13.60 5.30,-5.50 6.40,0.00 7.50,5.50 8.00,13.60"/>
        <lane id=":intersection_1_1_21_1" index="1" speed="11.11" length="27.37" shape="4.80,-13.60 4.80,13.60"/>
        <lane id=":intersection_1_1_21_2" index="2" speed="11.11" length="27.37" shape="4.80,-13.60 4.30,-5.50 3.20,-0.00 2.10,5.50 1.60,13.60"/>
    </edge>
    <edge id=":intersection_1_1_24" function="internal">
        <lane id=":intersection_1_1_24_0" index="0" speed="11.11" length="22.18" shape="1.60,-13.60 0.65,-4.15 -2.20,2.60 -6.27,6.07"/>
        <lane id=":intersection_1_1_24_1" index="1" speed="10.88" length="20.74" shape="1.60,-13.60 0.65,-5.55 -2.20,0.20 -6.95,3.65 -7.29,3.71"/>
        <lane id=":intersection_1_1_24_2" index="2" speed="10.36" length="21.49" shape="1.60,-13.60 0.65,-6.95 -2.20,-2.20 -6.95,0.65 -10.61,1.17"/>
    </edge>
    <edge id=":intersection_1_1_42" function="internal">
        <lane id=":intersection_1_1_42_0" index="0" speed="11.11" length="7.68" shape="-6.27,6.07 -6.95,6.65 -13.60,8.00"/>
    </edge>
    <edge id=":intersection_1_1_43" function="internal">
        <lane id=":intersection_1_1_43_0" index="0" speed="10.88" length="6.40" shape="-7.29,3.71 -13.60,4.80"/>
    </edge>
    <edge id=":intersection_1_1_44" function="internal">
        <lane id=":intersection_1_1_44_0" index="0" speed="10.36" length="3.02" shape="-10.61,1.17 -13.60,1.60"/>
    </edge>
    <edge id=":intersection_1_1_27" function="internal">
        <lane id=":intersection_1_1_27_0" index="0" speed="6.51" length="9.03" shape="-13.60,-8.00 -11.15,-8.35 -9.40,-9.40 -8.35,-11.15 -8.00,-13.60"/>
        <lane id=":intersection_1_1_27_1" index="1" speed="7.33" length="11.73" shape="-13.60,-8.00 -9.75,-8.35 -7.00,-9.40 -5.35,-11.15 -4.80,-13.60"/>
        <lane id=":intersection_1_1_27_2" index="2" speed="8.10" length="14.57" shape="-13.60,-8.00 -8.35,-8.35 -4.60,-9.40 -2.35,-11.15 -1.60,-13.60"/>
    </edge>
    <edge id=":intersection_1_1_30" function="internal">
        <lane id=":intersection_1_1_30_0" index="0" speed="11.11" length="27.37" shape="-13.60,-4.80 -5.50,-5.30 0.00,-6.40 5.50,-7.50 13.60,-8.00"/>
        <lane id=":intersection_1_1_30_1" index="1" speed="11.11" length="27.37" shape="-13.60,-4.80 13.60,-4.80"/>
        <lane id=":intersection_1_1_30_2" index="2" speed="11.11" length="27.37" shape="-13.60,-4.80 -5.50,-4.30 -0.00,-3.20 5.50,-2.10 13.60,-1.60"/>
    </edge>
    <edge id=":intersection_1_1_33" function="internal">
        <lane id=":intersection_1_1_33_0" index="0" speed="11.11" length="22.18" shape="-13.60,-1.60 -4.15,-0.65 2.60,2.20 6.07,6.27"/>
        <lane id=":intersection_1_1_33_1" index="1" speed="10.88" length="20.74" shape="-13.60,-1.60 -5.55,-0.65 0.20,2.20 3.65,6.95 3.71,7.29"/>
        <lane id=":intersection_1_1_33_2" index="2" speed="10.36" length="21.49" shape="-13.60,-1.60 -6.95,-0.65 -2.20,2.20 0.65,6.95 1.17,10.61"/>
    </edge>
    <edge id=":intersection_1_1_45" function="internal">
        <lane id=":intersection_1_1_45_0" index="0" speed="11.11" length="7.68" shape="6.07,6.27 6.65,6.95 8.00,13.60"/>
    </edge>
    <edge id=":intersection_1_1_46" function="internal">
        <lane id=":intersection_1_1_46_0" index="0" speed="10.88" length="6.40" shape="3.71,7.29 4.80,13.60"/>
    </edge>
    <edge id=":intersection_1_1_47" function="internal">
        <lane id=":intersection_1_1_47_0" index="0" speed="10.36" length="3.02" shape="1.17,10.61 1.60,13.60"/>
    </edge>
    <edge id=":intersection_1_2_0" function="internal">
        <lane id=":intersection_1_2_0_0" index="0" speed="6.51" length="9.03" shape="-8.00,813.60 -8.35,811.15 -9.40,809.40 -11.15,808.35 -13.60,808.00"/>
        <lane id=":intersection_1_2_0_1" index="1" speed="7.33" length="11.73" shape="-8.00,813.60 -8.35,809.75 -9.40,807.00 -11.15,805.35 -13.60,804.80"/>
        <lane id=":intersection_1_2_0_2" index="2" speed="8.10" length="14.57" shape="-8.00,813.60 -8.35,808.35 -9.40,804.60 -11.15,802.35 -13.60,801.60"/>
    </edge>
    <edge id=":intersection_1_2_3" function="internal">
        <lane id=":intersection_1_2_3_0" index="0" speed="11.11" length="27.37" shape="-4.80,813.60 -5.30,805.50 -6.40,800.00 -7.50,794.50 -8.00,786.40"/>
        <lane id=":intersection_1_2_3_1" index="1" speed="11.11" length="27.37" shape="-4.80,813.60 -4.80,786.40"/>
        <lane id=":intersection_1_2_3_2" index="2" speed="11.11" length="27.37" shape="-4.80,813.60 -4.30,805.50 -3.20,800.00 -2.10,794.50 -1.60,786.40"/>
    </edge>
    <edge id=":intersection_1_2_6" function="internal">
        <lane id=":intersection_1_2_6_0" index="0" speed="11.11" length="22.18" shape="-1.60,813.60 -0.65,804.15 2.20,797.40 6.27,793.93"/>
        <lane id=":intersection_1_2_6_1" index="1" speed="10.88" length="20.74" shape="-1.60,813.60 -0.65,805.55 2.20,799.80 6.95,796.35 7.29,796.29"/>
        <lane id=":intersection_1_2_6_2" index="2" speed="10.36" length="21.49" shape="-1.60,813.60 -0.65,806.95 2.20,802.20 6.95,799.35 10.61,798.83"/>
    </edge>
    <edge id=":intersection_1_2_36" function="internal">
        <lane id=":intersection_1_2_36_0" index="0" speed="11.11" length="7.68" shape="6.27,793.93 6.95,793.35 13.60,792.00"/>
    </edge>
    <edge id=":intersection_1_2_37" function="internal">
        <lane id=":intersection_1_2_37_0" index="0" speed="10.88" length="6.40" shape="7.29,796.29 13.60,795.20"/>
    </edge>
    <edge id=":intersection_1_2_38" function="internal">
        <lane id=":intersection_1_2_38_0" index="0" speed="10.36" length="3.02" shape="10.61,798.83 13.60,798.40"/>
    </edge>
    <edge id=":intersection_1_2_9" function="internal">
        <lane id=":intersection_1_2_9_0" index="0" speed="6.51" length="9.03" shape="13.60,808.00 11.15,808.35 9.40,809.40 8.35,811.15 8.00,813.60"/>
        <lane id=":intersection_1_2_9_1" index="1" speed="7.33" length="11.73" shape="13.60,808.00 9.75,808.35 7.00,809.40 5.35,811.15 4.80,813.60"/>
        <lane id=":intersection_1_2_9_2" index="2" speed="8.10" length="14.57" shape="13.60,808.00 8.35,808.35 4.60,809.40 2.35,811.15 1.60,813.60"/>
    </edge>
    <edge id=":intersection_1_2_12" function="internal">
        <lane id=":intersection_1_2_12_0" index="0" speed="11.11" length="27.37" shape="13.60,804.80 5.50,805.30 0.00,806.40 -5.50,807.50 -13.60,808.00"/>
        <lane id=":intersection_1_2_12_1" index="1" speed="11.11" length="27.37" shape="13.60,804.80 -13.60,804.80"/>
        <lane id=":intersection_1_2_12_2" index="2" speed="11.11" length="27.37" shape="13.60,804.80 5.50,804.30 -0.00,803.20 -5.50,802.10 -13.60,801.60"/>
    </edge>
    <edge id=":intersection_1_2_15" function="internal">
        <lane id=":intersection_1_2_15_0" index="0" speed="11.11" length="22.18" shape="13.60,801.60 4.15,800.65 -2.60,797.80 -6.07,793.73"/>
        <lane id=":intersection_1_2_15_1" index="1" speed="10.88" length="20.74" shape="13.60,801.60 5.55,800.65 -0.20,797.80 -3.65,793.05 -3.71,792.71"/>
        <lane id=":intersection_1_2_15_2" index="2" speed="10.36" length="21.49" shape="13.60,801.60 6.95,800.65 2.20,797.80 -0.65,793.05 -1.17,789.39"/>
    </edge>
    <edge id=":intersection_1_2_39" function="internal">
        <lane id=":intersection_1_2_39_0" index="0" speed="11.11" length="7.68" shape="-6.07,793.73 -6.65,793.05 -8.00,786.40"/>
    </edge>
    <edge id=":intersection_1_2_40" function="internal">
        <lane id=":intersection_1_2_40_0" index="0" speed="10.88" length="6.40" shape="-3.71,792.71 -4.80,786.40"/>
    </edge>
    <edge id=":intersection_1_2_41" function="internal">
        <lane id=":intersection_1_2_41_0" index="0" speed="10.36" length="3.02" shape="-1.17,789.39 -1.60,786.40"/>
    </edge>
    <edge id=":intersection_1_2_18" function="internal">
        <lane id=":intersection_1_2_18_0" index="0" speed="6.51" length="9.03" shape="8.00,786.40 8.35,788.85 9.40,790.60 11.15,791.65 13.60,792.00"/>
        <lane id=":intersection_1_2_18_1" index="1" speed="7.33" length="11.73" shape="8.00,786.40 8.35,790.25 9.40,793.00 11.15,794.65 13.60,795.20"/>
        <lane id=":intersection_1_2_18_2" index="2" speed="8.10" length="14.57" shape="8.00,786.40 8.35,791.65 9.40,795.40 11.15,797.65 13.60,798.40"/>
    </edge>
    <edge id=":intersection_1_2_21" function="internal">
        <lane id=":intersection_1_2_21_0" index="0" speed="11.11" length="27.37" shape="4.80,786.40 5.30,794.50 6.40,800.00 7.50,805.50 8.00,813.60"/>
        <lane id=":intersection_1_2_21_1" index="1" speed="11.11" length="27.37" shape="4.80,786.40 4.80,813.60"/>
        <lane id=":intersection_1_2_21_2" index="2" speed="11.11" length="27.37" shape="4.80,786.40 4.30,794.50 3.20,800.00 2.10,805.50 1.60,813.60"/>
    </edge>
    <edge id=":intersection_1_2_24" function="internal">
        <lane id=":intersection_1_2_24_0" index="0" speed="11.11" length="22.18" shape="1.60,786.40 0.65,795.85 -2.20,802.60 -6.27,806.07"/>
        <lane id=":intersection_1_2_24_1" index="1" speed="10.88" length="20.74" shape="1.60,786.40 0.65,794.45 -2.20,800.20 -6.95,803.65 -7.29,803.71"/>
        <lane id=":intersection_1_2_24_2" index="2" speed="10.36" length="21.49" shape="1.60,786.40 0.65,793.05 -2.20,797.80 -6.95,800.65 -10.61,801.17"/>
    </edge>
    <edge id=":intersection_1_2_42" function="internal">
        <lane id=":intersection_1_2_42_0" index="0" speed="11.11" length="7.68" shape="-6.27,806.07 -6.95,806.65 -13.60,808.00"/>
    </edge>
    <edge id=":intersection_1_2_43" function="internal">
        <lane id=":intersection_1_2_43_0" index="0" speed="10.88" length="6.40" shape="-7.29,803.71 -13.60,804.80"/>
    </edge>
    <edge id=":intersection_1_2_44" function="internal">
        <lane id=":intersection_1_2_44_0" index="0" speed="10.36" length="3.02" shape="-10.61,801.17 -13.60,801.60"/>
    </edge>
    <edge id=":intersection_1_2_27" function="internal">
        <lane id=":intersection_1_2_27_0" index="0" speed="6.51" length="9.03" shape="-13.60,792.00 -11.15,791.65 -9.40,790.60 -8.35,788.85 -8.00,786.40"/>
        <lane id=":intersection_1_2_27_1" index="1" speed="7.33" length="11.73" shape="-13.60,792.00 -9.75,791.65 -7.00,790.60 -5.35,788.85 -4.80,786.40"/>
        <lane id=":intersection_1_2_27_2" index="2" speed="8.10" length="14.57" shape="-13.60,792.00 -8.35,791.65 -4.60,790.60 -2.35,788.85 -1.60,786.40"/>
    </edge>
    <edge id=":intersection_1_2_30" function="internal">
        <lane id=":intersection_1_2_30_0" index="0" speed="11.11" length="27.37" shape="-13.60,795.20 -5.50,794.70 0.00,793.60 5.50,792.50 13.60,792.00"/>
        <lane id=":intersection_1_2_30_1" index="1" speed="11.11" length="27.37" shape="-13.60,795.20 13.60,795.20"/>
        <lane id=":intersection_1_2_30_2" index="2" speed="11.11" length="27.37" shape="-13.60,795.20 -5.50,795.70 -0.00,796.80 5.50,797.90 13.60,798.40"/>
    </edge>
    <edge id=":intersection_1_2_33" function="internal">
        <lane id=":intersection_1_2_33_0" index="0" speed="11.11" length="22.18" shape="-13.60,798.40 -4.15,799.35 2.60,802.20 6.07,806.27"/>
        <lane id=":intersection_1_2_33_1" index="1" speed="10.88" length="20.74" shape="-13.60,798.40 -5.55,799.35 0.20,802.20 3.65,806.95 3.71,807.29"/>
        <lane id=":intersection_1_2_33_2" index="2" speed="10.36" length="21.49" shape="-13.60,798.40 -6.95,799.35 -2.20,802.20 0.65,806.95 1.17,810.61"/>
    </edge>
    <edge id=":intersection_1_2_45" function="internal">
        <lane id=":intersection_1_2_45_0" index="0" speed="11.11" length="7.68" shape="6.07,806.27 6.65,806.95 8.00,813.60"/>
    </edge>
    <edge id=":intersection_1_2_46" function="internal">
        <lane id=":intersection_1_2_46_0" index="0" speed="10.88" length="6.40" shape="3.71,807.29 4.80,813.60"/>
    </edge>
    <edge id=":intersection_1_2_47" function="internal">
        <lane id=":intersection_1_2_47_0" index="0" speed="10.36" length="3.02" shape="1.17,810.61 1.60,813.60"/>
    </edge>
    <edge id=":intersection_1_3_0" function="internal">
        <lane id=":intersection_1_3_0_0" index="0" speed="6.51" length="9.03" shape="-8.00,1613.60 -8.35,1611.15 -9.40,1609.40 -11.15,1608.35 -13.60,1608.00"/>
        <lane id=":intersection_1_3_0_1" index="1" speed="7.33" length="11.73" shape="-8.00,1613.60 -8.35,1609.75 -9.40,1607.00 -11.15,1605.35 -13.60,1604.80"/>
        <lane id=":intersection_1_3_0_2" index="2" speed="8.10" length="14.57" shape="-8.00,1613.60 -8.35,1608.35 -9.40,1604.60 -11.15,1602.35 -13.60,1601.60"/>
    </edge>
    <edge id=":intersection_1_3_3" function="internal">
        <lane id=":intersection_1_3_3_0" index="0" speed="11.11" length="27.37" shape="-4.80,1613.60 -5.30,1605.50 -6.40,1600.00 -7.50,1594.50 -8.00,1586.40"/>
        <lane id=":intersection_1_3_3_1" index="1" speed="11.11" length="27.37" shape="-4.80,1613.60 -4.80,1586.40"/>
        <lane id=":intersection_1_3_3_2" index="2" speed="11.11" length="27.37" shape="-4.80,1613.60 -4.30,1605.50 -3.20,1600.00 -2.10,1594.50 -1.60,1586.40"/>
    </edge>
    <edge id=":intersection_1_3_6" function="internal">
        <lane id=":intersection_1_3_6_0" index="0" speed="11.11" length="22.18" shape="-1.60,1613.60 -0.65,1604.15 2.20,1597.40 6.27,1593.93"/>
        <lane id=":intersection_1_3_6_1" index="1" speed="10.88" length="20.74" shape="-1.60,1613.60 -0.65,1605.55 2.20,1599.80 6.95,1596.35 7.29,1596.29"/>
        <lane id=":intersection_1_3_6_2" index="2" speed="10.36" length="21.49" shape="-1.60,1613.60 -0.65,1606.95 2.20,1602.20 6.95,1599.35 10.61,1598.83"/>
    </edge>
    <edge id=":intersection_1_3_36" function="internal">
        <lane id=":intersection_1_3_36_0" index="0" speed="11.11" length="7.68" shape="6.27,1593.93 6.95,1593.35 13.60,1592.00"/>
    </edge>
    <edge id=":intersection_1_3_37" function="internal">
        <lane id=":intersection_1_3_37_0" index="0" speed="10.88" length="6.40" shape="7.29,1596.29 13.60,1595.20"/>
    </edge>
    <edge id=":intersection_1_3_38" function="internal">
        <lane id=":intersection_1_3_38_0" index="0" speed="10.36" length="3.02" shape="10.61,1598.83 13.60,1598.40"/>
    </edge>
    <edge id=":intersection_1_3_9" function="internal">
        <lane id=":intersection_1_3_9_0" index="0" speed="6.51" length="9.03" shape="13.60,1608.00 11.15,1608.35 9.40,1609.40 8.35,1611.15 8.00,1613.60"/>
        <lane id=":intersection_1_3_9_1" index="1" speed="7.33" length="11.73" shape="13.60,1608.00 9.75,1608.35 7.00,1609.40 5.35,1611.15 4.80,1613.60"/>
        <lane id=":intersection_1_3_9_2" index="2" speed="8.10" length="14.57" shape="13.60,1608.00 8.35,1608.35 4.60,1609.40 2.35,1611.15 1.60,1613.60"/>
    </edge>
    <edge id=":intersection_1_3_12" function="internal">
        <lane id=":intersection_1_3_12_0" index="0" speed="11.11" length="27.37" shape="13.60,1604.80 5.50,1605.30 0.00,1606.40 -5.50,1607.50 -13.60,1608.00"/>
        <lane id=":intersection_1_3_12_1" index="1" speed="11.11" length="27.37" shape="13.60,1604.80 -13.60,1604.80"/>
        <lane id=":intersection_1_3_12_2" index="2" speed="11.11" length="27.37" shape="13.60,1604.80 5.50,1604.30 -0.00,1603.20 -5.50,1602.10 -13.60,1601.60"/>
    </edge>
    <edge id=":intersection_1_3_15" function="internal">
        <lane id=":intersection_1_3_15_0" index="0" speed="11.11" length="22.18" shape="13.60,1601.60 4.15,1600.65 -2.60,1597.80 -6.07,1593.73"/>
        <lane id=":intersection_1_3_15_1" index="1" speed="10.88" length="20.74" shape="13.60,1601.60 5.55,1600.65 -0.20,1597.80 -3.65,1593.05 -3.71,1592.71"/>
        <lane id=":intersection_1_3_15_2" index="2" speed="10.36" length="21.49" shape="13.60,1601.60 6.95,1600.65 2.20,1597.80 -0.65,1593.05 -1.17,1589.39"/>
    </edge>
    <edge id=":intersection_1_3_39" function="internal">
        <lane id=":intersection_1_3_39_0" index="0" speed="11.11" length="7.68" shape="-6.07,1593.73 -6.65,1593.05 -8.00,1586.40"/>
    </edge>
    <edge id=":intersection_1_3_40" function="internal">
        <lane id=":intersection_1_3_40_0" index="0" speed="10.88" length="6.40" shape="-3.71,1592.71 -4.80,1586.40"/>
    </edge>
    <edge id=":intersection_1_3_41" function="internal">
        <lane id=":intersection_1_3_41_0" index="0" speed="10.36" length="3.02" shape="-1.17,1589.39 -1.60,1586.40"/>
    </edge>
    <edge id=":intersection_1_3_18" function="internal">
        <lane id=":intersection_1_3_18_0" index="0" speed="6.51" length="9.03" shape="8.00,1586.40 8.35,1588.85 9.40,1590.60 11.15,1591.65 13.60,1592.00"/>
        <lane id=":intersection_1_3_18_1" index="1" speed="7.33" length="11.73" shape="8.00,1586.40 8.35,1590.25 9.40,1593.00 11.15,1594.65 13.60,1595.20"/>
        <lane id=":intersection_1_3_18_2" index="2" speed="8.10" length="14.57" shape="8.00,1586.40 8.35,1591.65 9.40,1595.40 11.15,1597.65 13.60,1598.40"/>
    </edge>
    <edge id=":intersection_1_3_21" function="internal">
        <lane id=":intersection_1_3_21_0" index="0" speed="11.11" length="27.37" shape="4.80,1586.40 5.30,1594.50 6.40,1600.00 7.50,1605.50 8.00,1613.60"/>
        <lane id=":intersection_1_3_21_1" index="1" speed="11.11" length="27.37" shape="4.80,1586.40 4.80,1613.60"/>
        <lane id=":intersection_1_3_21_2" index="2" speed="11.11" length="27.37" shape="4.80,1586.40 4.30,1594.50 3.20,1600.00 2.10,1605.50 1.60,1613.60"/>
    </edge>
    <edge id=":intersection_1_3_24" function="internal">
        <lane id=":intersection_1_3_24_0" index="0" speed="11.11" length="22.18" shape="1.60,1586.40 0.65,1595.85 -2.20,1602.60 -6.27,1606.07"/>
        <lane id=":intersection_1_3_24_1" index="1" speed="10.88" length="20.74" shape="1.60,1586.40 0.65,1594.45 -2.20,1600.20 -6.95,1603.65 -7.29,1603.71"/>
        <lane id=":intersection_1_3_24_2" index="2" speed="10.36" length="21.49" shape="1.60,1586.40 0.65,1593.05 -2.20,1597.80 -6.95,1600.65 -10.61,1601.17"/>
    </edge>
    <edge id=":intersection_1_3_42" function="internal">
        <lane id=":intersection_1_3_42_0" index="0" speed="11.11" length="7.68" shape="-6.27,1606.07 -6.95,1606.65 -13.60,1608.00"/>
    </edge>
    <edge id=":intersection_1_3_43" function="internal">
        <lane id=":intersection_1_3_43_0" index="0" speed="10.88" length="6.40" shape="-7.29,1603.71 -13.60,1604.80"/>
    </edge>
    <edge id=":intersection_1_3_44" function="internal">
        <lane id=":intersection_1_3_44_0" index="0" speed="10.36" length="3.02" shape="-10.61,1601.17 -13.60,1601.60"/>
    </edge>
    <edge id=":intersection_1_3_27" function="internal">
        <lane id=":intersection_1_3_27_0" index="0" speed="6.51" length="9.03" shape="-13.60,1592.00 -11.15,1591.65 -9.40,1590.60 -8.35,1588.85 -8.00,1586.40"/>
        <lane id=":intersection_1_3_27_1" index="1" speed="7.33" length="11.73" shape="-13.60,1592.00 -9.75,1591.65 -7.00,1590.60 -5.35,1588.85 -4.80,1586.40"/>
        <lane id=":intersection_1_3_27_2" index="2" speed="8.10" length="14.57" shape="-13.60,1592.00 -8.35,1591.65 -4.60,1590.60 -2.35,1588.85 -1.60,1586.40"/>
    </edge>
    <edge id=":intersection_1_3_30" function="internal">
        <lane id=":intersection_1_3_30_0" index="0" speed="11.11" length="27.37" shape="-13.60,1595.20 -5.50,1594.70 0.00,1593.60 5.50,1592.50 13.60,1592.00"/>
        <lane id=":intersection_1_3_30_1" index="1" speed="11.11" length="27.37" shape="-13.60,1595.20 13.60,1595.20"/>
        <lane id=":intersection_1_3_30_2" index="2" speed="11.11" length="27.37" shape="-13.60,1595.20 -5.50,1595.70 -0.00,1596.80 5.50,1597.90 13.60,1598.40"/>
    </edge>
    <edge id=":intersection_1_3_33" function="internal">
        <lane id=":intersection_1_3_33_0" index="0" speed="11.11" length="22.18" shape="-13.60,1598.40 -4.15,1599.35 2.60,1602.20 6.07,1606.27"/>
        <lane id=":intersection_1_3_33_1" index="1" speed="10.88" length="20.74" shape="-13.60,1598.40 -5.55,1599.35 0.20,1602.20 3.65,1606.95 3.71,1607.29"/>
        <lane id=":intersection_1_3_33_2" index="2" speed="10.36" length="21.49" shape="-13.60,1598.40 -6.95,1599.35 -2.20,1602.20 0.65,1606.95 1.17,1610.61"/>
    </edge>
    <edge id=":intersection_1_3_45" function="internal">
        <lane id=":intersection_1_3_45_0" index="0" speed="11.11" length="7.68" shape="6.07,1606.27 6.65,1606.95 8.00,1613.60"/>
    </edge>
    <edge id=":intersection_1_3_46" function="internal">
        <lane id=":intersection_1_3_46_0" index="0" speed="10.88" length="6.40" shape="3.71,1607.29 4.80,1613.60"/>
    </edge>
    <edge id=":intersection_1_3_47" function="internal">
        <lane id=":intersection_1_3_47_0" index="0" speed="10.36" length="3.02" shape="1.17,1610.61 1.60,1613.60"/>
    </edge>
    <edge id=":intersection_2_1_0" function="internal">
        <lane id=":intersection_2_1_0_0" index="0" speed="6.51" length="9.03" shape="392.00,13.60 391.65,11.15 390.60,9.40 388.85,8.35 386.40,8.00"/>
        <lane id=":intersection_2_1_0_1" index="1" speed="7.33" length="11.73" shape="392.00,13.60 391.65,9.75 390.60,7.00 388.85,5.35 386.40,4.80"/>
        <lane id=":intersection_2_1_0_2" index="2" speed="8.10" length="14.57" shape="392.00,13.60 391.65,8.35 390.60,4.60 388.85,2.35 386.40,1.60"/>
    </edge>
    <edge id=":intersection_2_1_3" function="internal">
        <lane id=":intersection_2_1_3_0" index="0" speed="11.11" length="27.37" shape="395.20,13.60 394.70,5.50 393.60,0.00 392.50,-5.50 392.00,-13.60"/>
        <lane id=":intersection_2_1_3_1" index="1" speed="11.11" length="27.37" shape="395.20,13.60 395.20,-13.60"/>
        <lane id=":intersection_2_1_3_2" index="2" speed="11.11" length="27.37" shape="395.20,13.60 395.70,5.50 396.80,-0.00 397.90,-5.50 398.40,-13.60"/>
    </edge>
    <edge id=":intersection_2_1_6" function="internal">
        <lane id=":intersection_2_1_6_0" index="0" speed="11.11" length="22.18" shape="398.40,13.60 399.35,4.15 402.20,-2.60 406.27,-6.07"/>
        <lane id=":intersection_2_1_6_1" index="1" speed="10.88" length="20.74" shape="398.40,13.60 399.35,5.55 402.20,-0.20 406.95,-3.65 407.29,-3.71"/>
        <lane id=":intersection_2_1_6_2" index="2" speed="10.36" length="21.49" shape="398.40,13.60 399.35,6.95 402.20,2.20 406.95,-0.65 410.61,-1.17"/>
    </edge>
    <edge id=":intersection_2_1_36" function="internal">
        <lane id=":intersection_2_1_36_0" index="0" speed="11.11" length="7.68" shape="406.27,-6.07 406.95,-6.65 413.60,-8.00"/>
    </edge>
    <edge id=":intersection_2_1_37" function="internal">
        <lane id=":intersection_2_1_37_0" index="0" speed="10.88" length="6.40" shape="407.29,-3.71 413.60,-4.80"/>
    </edge>
    <edge id=":intersection_2_1_38" function="internal">
        <lane id=":intersection_2_1_38_0" index="0" speed="10.36" length="3.02" shape="410.61,-1.17 413.60,-1.60"/>
    </edge>
    <edge id=":intersection_2_1_9" function="internal">
        <lane id=":intersection_2_1_9_0" index="0" speed="6.51" length="9.03" shape="413.60,8.00 411.15,8.35 409.40,9.40 408.35,11.15 408.00,13.60"/>
        <lane id=":intersection_2_1_9_1" index="1" speed="7.33" length="11.73" shape="413.60,8.00 409.75,8.35 407.00,9.40 405.35,11.15 404.80,13.60"/>
        <lane id=":intersection_2_1_9_2" index="2" speed="8.10" length="14.57" shape="413.60,8.00 408.35,8.35 404.60,9.40 402.35,11.15 401.60,13.60"/>
    </edge>
    <edge id=":intersection_2_1_12" function="internal">
        <lane id=":intersection_2_1_12_0" index="0" speed="11.11" length="27.37" shape="413.60,4.80 405.50,5.30 400.00,6.40 394.50,7.50 386.40,8.00"/>
        <lane id=":intersection_2_1_12_1" index="1" speed="11.11" length="27.37" shape="413.60,4.80 386.40,4.80"/>
        <lane id=":intersection_2_1_12_2" index="2" speed="11.11" length="27.37" shape="413.60,4.80 405.50,4.30 400.00,3.20 394.50,2.10 386.40,1.60"/>
    </edge>