<?xml version="1.0" encoding="UTF-8"?>

<!-- generated on 2025-03-07 09:53:45 by Eclipse SUMO netedit Version 1.20.0
-->

<routes xmlns:xsi="http://www.w3.org/2001/XMLSchema-instance" xsi:noNamespaceSchemaLocation="http://sumo.dlr.de/xsd/routes_file.xsd">
    <!-- Routes -->
    <route id="route_0" edges="road_0_2_0 road_1_2_0 road_2_2_0 road_3_2_1 road_3_3_1"/>
    <route id="route_1" edges="road_0_2_0 road_1_2_0 road_2_2_1 road_2_3_2 road_1_3_2"/>
    <route id="route_10" edges="road_0_2_0 road_1_2_0 road_2_2_0 road_3_2_0 road_4_2_1 road_4_3_0"/>
    <route id="route_100" edges="road_0_1_0 road_1_1_0 road_2_1_1 road_2_2_0 road_3_2_0 road_4_2_0"/>
    <route id="route_101" edges="road_0_1_0 road_1_1_0 road_2_1_1 road_2_2_0 road_3_2_0 road_4_2_1 road_4_3_0"/>
    <route id="route_102" edges="road_0_1_0 road_1_1_0 road_2_1_0 road_3_1_0 road_4_1_1 road_4_2_0"/>
    <route id="route_103" edges="road_0_1_0 road_1_1_0 road_2_1_0 road_3_1_1 road_3_2_1 road_3_3_2 road_2_3_1"/>
    <route id="route_104" edges="road_0_1_0 road_1_1_0 road_2_1_1 road_2_2_1 road_2_3_0 road_3_3_1"/>
    <route id="route_105" edges="road_0_1_0 road_1_1_1 road_1_2_0 road_2_2_0 road_3_2_0 road_4_2_3 road_4_1_2 road_3_1_2 road_2_1_2 road_1_1_3"/>
    <route id="route_106" edges="road_0_1_0 road_1_1_1 road_1_2_1 road_1_3_0 road_2_3_0 road_3_3_0 road_4_3_3 road_4_2_3 road_4_1_0"/>
    <route id="route_107" edges="road_0_1_0 road_1_1_0 road_2_1_1 road_2_2_1 road_2_3_2 road_1_3_2"/>
    <route id="route_108" edges="road_0_1_0 road_1_1_1 road_1_2_0 road_2_2_3 road_2_1_2 road_1_1_2"/>
    <route id="route_109" edges="road_0_1_0 road_1_1_1 road_1_2_0 road_2_2_0 road_3_2_0 road_4_2_0"/>
    <route id="route_11" edges="road_0_2_0 road_1_2_0 road_2_2_0 road_3_2_3 road_3_1_3"/>
    <route id="route_110" edges="road_0_1_0 road_1_1_1 road_1_2_1 road_1_3_0 road_2_3_0 road_3_3_0 road_4_3_3 road_4_2_2 road_3_2_2 road_2_2_2 road_1_2_2"/>
    <route id="route_111" edges="road_0_1_0 road_1_1_0 road_2_1_0 road_3_1_1 road_3_2_1 road_3_3_0 road_4_3_0"/>
    <route id="route_112" edges="road_0_1_0 road_1_1_0 road_2_1_0 road_3_1_0 road_4_1_1 road_4_2_1 road_4_3_0"/>
    <route id="route_113" edges="road_0_1_0 road_1_1_1 road_1_2_1 road_1_3_0 road_2_3_3 road_2_2_3 road_2_1_3"/>
    <route id="route_114" edges="road_0_1_0 road_1_1_0 road_2_1_0 road_3_1_1 road_3_2_1 road_3_3_0 road_4_3_3 road_4_2_3 road_4_1_0"/>
    <route id="route_115" edges="road_0_1_0 road_1_1_0 road_2_1_1 road_2_2_1 road_2_3_0 road_3_3_0 road_4_3_0"/>
    <route id="route_116" edges="road_0_1_0 road_1_1_0 road_2_1_1 road_2_2_1 road_2_3_0 road_3_3_0 road_4_3_3 road_4_2_0"/>
    <route id="route_117" edges="road_0_1_0 road_1_1_0 road_2_1_1 road_2_2_0 road_3_2_3 road_3_1_2 road_2_1_3"/>
    <route id="route_118" edges="road_0_1_0 road_1_1_0 road_2_1_0 road_3_1_1 road_3_2_1 road_3_3_2 road_2_3_2 road_1_3_2"/>
    <route id="route_119" edges="road_0_1_0 road_1_1_0 road_2_1_0 road_3_1_0 road_4_1_1 road_4_2_1 road_4_3_2 road_3_3_1"/>
    <route id="route_12" edges="road_0_2_0 road_1_2_3 road_1_1_0 road_2_1_1 road_2_2_0 road_3_2_0 road_4_2_0"/>
    <route id="route_120" edges="road_0_1_0 road_1_1_1 road_1_2_0 road_2_2_0 road_3_2_3 road_3_1_3"/>
    <route id="route_121" edges="road_0_1_0 road_1_1_1 road_1_2_0 road_2_2_0 road_3_2_1 road_3_3_0 road_4_3_1"/>
    <route id="route_122" edges="road_0_1_0 road_1_1_1 road_1_2_1 road_1_3_0 road_2_3_0 road_3_3_0 road_4_3_3 road_4_2_3 road_4_1_3"/>
    <route id="route_123" edges="road_0_1_0 road_1_1_0 road_2_1_0 road_3_1_1 road_3_2_1 road_3_3_2 road_2_3_3 road_2_2_3 road_2_1_2 road_1_1_1 road_1_2_0 road_2_2_0 road_3_2_0 road_4_2_0"/>
    <route id="route_124" edges="road_0_1_0 road_1_1_1 road_1_2_0 road_2_2_3 road_2_1_2 road_1_1_3"/>
    <route id="route_125" edges="road_0_1_0 road_1_1_1 road_1_2_1 road_1_3_0 road_2_3_0 road_3_3_0 road_4_3_1"/>
    <route id="route_126" edges="road_0_1_0 road_1_1_0 road_2_1_0 road_3_1_1 road_3_2_0 road_4_2_0"/>
    <route id="route_127" edges="road_0_1_0 road_1_1_0 road_2_1_1 road_2_2_1 road_2_3_0 road_3_3_0 road_4_3_1"/>
    <route id="route_128" edges="road_0_1_0 road_1_1_1 road_1_2_0 road_2_2_1 road_2_3_1"/>
    <route id="route_129" edges="road_0_1_0 road_1_1_0 road_2_1_1 road_2_2_1 road_2_3_0 road_3_3_0 road_4_3_3 road_4_2_2 road_3_2_2 road_2_2_2 road_1_2_2"/>
    <route id="route_13" edges="road_0_2_0 road_1_2_0 road_2_2_0 road_3_2_0 road_4_2_3 road_4_1_3"/>
    <route id="route_130" edges="road_0_1_0 road_1_1_1 road_1_2_0 road_2_2_0 road_3_2_0 road_4_2_1 road_4_3_0"/>
    <route id="route_131" edges="road_0_1_0 road_1_1_0 road_2_1_0 road_3_1_0 road_4_1_1 road_4_2_1 road_4_3_2 road_3_3_2 road_2_3_1"/>
    <route id="route_132" edges="road_0_1_0 road_1_1_0 road_2_1_0 road_3_1_1 road_3_2_0 road_4_2_1 road_4_3_0"/>
    <route id="route_133" edges="road_0_1_0 road_1_1_0 road_2_1_1 road_2_2_1 road_2_3_0 road_3_3_0 road_4_3_3 road_4_2_3 road_4_1_0"/>
    <route id="route_134" edges="road_0_1_0 road_1_1_1 road_1_2_1 road_1_3_0 road_2_3_3 road_2_2_0 road_3_2_0 road_4_2_0"/>
    <route id="route_135" edges="road_0_1_0 road_1_1_0 road_2_1_1 road_2_2_0 road_3_2_0 road_4_2_3 road_4_1_0"/>
    <route id="route_136" edges="road_0_1_0 road_1_1_1 road_1_2_0 road_2_2_0 road_3_2_0 road_4_2_1 road_4_3_2 road_3_3_1"/>
    <route id="route_137" edges="road_0_1_0 road_1_1_0 road_2_1_0 road_3_1_1 road_3_2_1 road_3_3_0 road_4_3_3 road_4_2_3 road_4_1_3"/>
    <route id="route_138" edges="road_0_1_0 road_1_1_0 road_2_1_0 road_3_1_1 road_3_2_2 road_2_2_2 road_1_2_2"/>
    <route id="route_139" edges="road_0_3_0 road_1_3_0 road_2_3_0 road_3_3_3 road_3_2_2 road_2_2_3 road_2_1_2 road_1_1_1 road_1_2_0"/>
    <route id="route_14" edges="road_0_2_0 road_1_2_0 road_2_2_0 road_3_2_0 road_4_2_3 road_4_1_2 road_3_1_3"/>
    <route id="route_140" edges="road_0_3_0 road_1_3_0 road_2_3_3 road_2_2_3 road_2_1_3"/>
    <route id="route_141" edges="road_0_3_0 road_1_3_0 road_2_3_0 road_3_3_0 road_4_3_3 road_4_2_3 road_4_1_3"/>
    <route id="route_142" edges="road_0_3_0 road_1_3_0 road_2_3_1"/>
    <route id="route_143" edges="road_0_3_0 road_1_3_0 road_2_3_0 road_3_3_1"/>
    <route id="route_144" edges="road_0_3_0 road_1_3_3 road_1_2_3 road_1_1_3"/>
    <route id="route_145" edges="road_0_3_0 road_1_3_1"/>
    <route id="route_146" edges="road_0_3_0 road_1_3_0 road_2_3_0 road_3_3_3 road_3_2_3 road_3_1_2 road_2_1_2 road_1_1_1 road_1_2_1 road_1_3_1"/>
    <route id="route_147" edges="road_0_3_0 road_1_3_0 road_2_3_3 road_2_2_3 road_2_1_2 road_1_1_1 road_1_2_1 road_1_3_2"/>
    <route id="route_148" edges="road_0_3_0 road_1_3_3 road_1_2_0 road_2_2_0 road_3_2_1 road_3_3_1"/>
    <route id="route_149" edges="road_0_3_0 road_1_3_0 road_2_3_0 road_3_3_0 road_4_3_3 road_4_2_3 road_4_1_0"/>
    <route id="route_15" edges="road_0_2_0 road_1_2_1 road_1_3_0 road_2_3_3 road_2_2_2 road_1_2_2"/>
    <route id="route_150" edges="road_0_3_0 road_1_3_0 road_2_3_0 road_3_3_0 road_4_3_0"/>
    <route id="route_151" edges="road_0_3_0 road_1_3_3 road_1_2_2"/>
    <route id="route_152" edges="road_0_3_0 road_1_3_0 road_2_3_0 road_3_3_3 road_3_2_3 road_3_1_2 road_2_1_3"/>
    <route id="route_153" edges="road_0_3_0 road_1_3_0 road_2_3_0 road_3_3_0 road_4_3_1"/>
    <route id="route_154" edges="road_0_3_0 road_1_3_0 road_2_3_0 road_3_3_3 road_3_2_3 road_3_1_2 road_2_1_2 road_1_1_2"/>
    <route id="route_155" edges="road_0_3_0 road_1_3_0 road_2_3_3 road_2_2_3 road_2_1_0 road_3_1_0 road_4_1_3"/>
    <route id="route_156" edges="road_0_3_0 road_1_3_0 road_2_3_3 road_2_2_2 road_1_2_2"/>
    <route id="route_157" edges="road_0_3_0 road_1_3_3 road_1_2_3 road_1_1_0 road_2_1_0 road_3_1_0 road_4_1_0"/>
    <route id="route_158" edges="road_0_3_0 road_1_3_0 road_2_3_0 road_3_3_3 road_3_2_3 road_3_1_0 road_4_1_3"/>
    <route id="route_159" edges="road_0_3_0 road_1_3_3 road_1_2_3 road_1_1_2"/>
    <route id="route_16" edges="road_0_2_0 road_1_2_0 road_2_2_3 road_2_1_3"/>
    <route id="route_160" edges="road_0_3_0 road_1_3_3 road_1_2_3 road_1_1_0 road_2_1_0 road_3_1_3"/>
    <route id="route_161" edges="road_0_3_0 road_1_3_0 road_2_3_0 road_3_3_3 road_3_2_2 road_2_2_3 road_2_1_3"/>
    <route id="route_162" edges="road_0_3_0 road_1_3_3 road_1_2_3 road_1_1_0 road_2_1_0 road_3_1_1 road_3_2_1 road_3_3_1"/>
    <route id="route_163" edges="road_0_3_0 road_1_3_0 road_2_3_3 road_2_2_3 road_2_1_2 road_1_1_1 road_1_2_1 road_1_3_1"/>
    <route id="route_164" edges="road_0_3_0 road_1_3_0 road_2_3_0 road_3_3_3 road_3_2_3 road_3_1_0 road_4_1_1 road_4_2_1 road_4_3_1"/>
    <route id="route_165" edges="road_0_3_0 road_1_3_0 road_2_3_0 road_3_3_0 road_4_3_3 road_4_2_3 road_4_1_2 road_3_1_1 road_3_2_1"/>
    <route id="route_166" edges="road_0_3_0 road_1_3_0 road_2_3_3 road_2_2_3 road_2_1_2 road_1_1_2"/>
    <route id="route_167" edges="road_0_3_0 road_1_3_0 road_2_3_3 road_2_2_2 road_1_2_1"/>
    <route id="route_168" edges="road_0_3_0 road_1_3_0 road_2_3_0 road_3_3_3 road_3_2_2 road_2_2_3 road_2_1_0 road_3_1_0 road_4_1_0"/>
    <route id="route_169" edges="road_0_3_0 road_1_3_0 road_2_3_0 road_3_3_3 road_3_2_3 road_3_1_0 road_4_1_0"/>
    <route id="route_17" edges="road_0_2_0 road_1_2_0 road_2_2_1 road_2_3_2 road_1_3_3 road_1_2_3 road_1_1_2"/>
    <route id="route_170" edges="road_0_3_0 road_1_3_3 road_1_2_0 road_2_2_0 road_3_2_0 road_4_2_3 road_4_1_3"/>
    <route id="route_171" edges="road_0_3_0 road_1_3_0 road_2_3_0 road_3_3_3 road_3_2_2 road_2_2_2 road_1_2_1"/>
    <route id="route_172" edges="road_0_3_0 road_1_3_0 road_2_3_0 road_3_3_0 road_4_3_3 road_4_2_3 road_4_1_2 road_3_1_3"/>
    <route id="route_173" edges="road_0_3_0 road_1_3_0 road_2_3_3 road_2_2_2 road_1_2_3 road_1_1_3"/>
    <route id="route_174" edges="road_0_3_0 road_1_3_0 road_2_3_0 road_3_3_0 road_4_3_3 road_4_2_3 road_4_1_2 road_3_1_2 road_2_1_2 road_1_1_1 road_1_2_0 road_2_2_0 road_3_2_3 road_3_1_3"/>
    <route id="route_175" edges="road_0_3_0 road_1_3_3 road_1_2_0 road_2_2_0 road_3_2_0 road_4_2_0"/>
    <route id="route_176" edges="road_0_3_0 road_1_3_0 road_2_3_3 road_2_2_3 road_2_1_2 road_1_1_3"/>
    <route id="route_177" edges="road_0_3_0 road_1_3_0 road_2_3_0 road_3_3_3 road_3_2_3 road_3_1_2 road_2_1_2 road_1_1_1 road_1_2_0 road_2_2_0 road_3_2_0 road_4_2_1 road_4_3_1"/>
    <route id="route_178" edges="road_0_3_0 road_1_3_0 road_2_3_0 road_3_3_0 road_4_3_3 road_4_2_3 road_4_1_2 road_3_1_1 road_3_2_1 road_3_3_1"/>
    <route id="route_179" edges="road_0_3_0 road_1_3_0 road_2_3_0 road_3_3_0 road_4_3_3 road_4_2_3 road_4_1_2 road_3_1_2 road_2_1_2 road_1_1_2"/>
    <route id="route_18" edges="road_0_2_0 road_1_2_1 road_1_3_0 road_2_3_0 road_3_3_3 road_3_2_3 road_3_1_2 road_2_1_1 road_2_2_1 road_2_3_2 road_1_3_3 road_1_2_3 road_1_1_0"/>
    <route id="route_180" edges="road_0_3_0 road_1_3_0 road_2_3_0 road_3_3_3 road_3_2_3 road_3_1_3"/>
    <route id="route_181" edges="road_0_3_0 road_1_3_0 road_2_3_0 road_3_3_0 road_4_3_3 road_4_2_3 road_4_1_2 road_3_1_2 road_2_1_2 road_1_1_1 road_1_2_1 road_1_3_1"/>
    <route id="route_182" edges="road_0_3_0 road_1_3_0 road_2_3_0 road_3_3_3 road_3_2_2 road_2_2_1 road_2_3_1"/>
    <route id="route_183" edges="road_0_3_0 road_1_3_3 road_1_2_3 road_1_1_0 road_2_1_0 road_3_1_0 road_4_1_3"/>
    <route id="route_184" edges="road_0_3_0 road_1_3_0 road_2_3_3 road_2_2_0 road_3_2_0 road_4_2_3 road_4_1_0"/>
    <route id="route_185" edges="road_0_3_0 road_1_3_0 road_2_3_3 road_2_2_0 road_3_2_0 road_4_2_3 road_4_1_2 road_3_1_1"/>
    <route id="route_186" edges="road_0_3_0 road_1_3_0 road_2_3_3 road_2_2_3 road_2_1_0 road_3_1_0 road_4_1_0"/>
    <route id="route_187" edges="road_0_3_0 road_1_3_0 road_2_3_0 road_3_3_0 road_4_3_3 road_4_2_2 road_3_2_2 road_2_2_1"/>
    <route id="route_188" edges="road_0_3_0 road_1_3_0 road_2_3_3 road_2_2_2 road_1_2_1 road_1_3_2"/>
    <route id="route_189" edges="road_0_3_0 road_1_3_0 road_2_3_0 road_3_3_0 road_4_3_3 road_4_2_2 road_3_2_2 road_2_2_2 road_1_2_1 road_1_3_1"/>
    <route id="route_19" edges="road_0_2_0 road_1_2_0 road_2_2_0 road_3_2_0 road_4_2_1 road_4_3_2 road_3_3_1"/>
    <route id="route_190" edges="road_0_3_0 road_1_3_0 road_2_3_0 road_3_3_0 road_4_3_3 road_4_2_0"/>
    <route id="route_191" edges="road_0_3_0 road_1_3_0 road_2_3_3 road_2_2_0 road_3_2_0 road_4_2_0"/>
    <route id="route_192" edges="road_0_3_0 road_1_3_3 road_1_2_0 road_2_2_0 road_3_2_0 road_4_2_3 road_4_1_2 road_3_1_2 road_2_1_2 road_1_1_1 road_1_2_1 road_1_3_2"/>
    <route id="route_193" edges="road_0_3_0 road_1_3_0 road_2_3_3 road_2_2_2 road_1_2_1 road_1_3_1"/>
    <route id="route_194" edges="road_0_3_0 road_1_3_3 road_1_2_3 road_1_1_0 road_2_1_1 road_2_2_0 road_3_2_0 road_4_2_0"/>
    <route id="route_195" edges="road_0_3_0 road_1_3_3 road_1_2_3 road_1_1_0 road_2_1_1 road_2_2_1 road_2_3_1"/>
    <route id="route_196" edges="road_0_3_0 road_1_3_3 road_1_2_3 road_1_1_0 road_2_1_0 road_3_1_0 road_4_1_1 road_4_2_1 road_4_3_0"/>
    <route id="route_197" edges="road_0_3_0 road_1_3_0 road_2_3_0 road_3_3_3 road_3_2_3 road_3_1_2 road_2_1_1 road_2_2_0 road_3_2_0 road_4_2_0"/>
    <route id="route_198" edges="road_0_3_0 road_1_3_3 road_1_2_0 road_2_2_3 road_2_1_2 road_1_1_1"/>
    <route id="route_199" edges="road_0_3_0 road_1_3_0 road_2_3_0 road_3_3_3 road_3_2_3 road_3_1_2 road_2_1_1 road_2_2_0 road_3_2_0 road_4_2_3 road_4_1_2 road_3_1_1 road_3_2_1 road_3_3_0 road_4_3_3"/>
    <route id="route_2" edges="road_0_2_0 road_1_2_0 road_2_2_0 road_3_2_0 road_4_2_0"/>
    <route id="route_20" edges="road_0_2_0 road_1_2_0 road_2_2_0 road_3_2_3 road_3_1_2 road_2_1_2 road_1_1_2"/>
    <route id="route_200" edges="road_0_3_0 road_1_3_3 road_1_2_3 road_1_1_0 road_2_1_3"/>
    <route id="route_201" edges="road_0_3_0 road_1_3_0 road_2_3_0 road_3_3_3 road_3_2_2 road_2_2_2 road_1_2_2"/>
    <route id="route_202" edges="road_0_3_0 road_1_3_0 road_2_3_3 road_2_2_0 road_3_2_3 road_3_1_2 road_2_1_2 road_1_1_1 road_1_2_1 road_1_3_2"/>
    <route id="route_203" edges="road_0_3_0 road_1_3_3 road_1_2_0 road_2_2_0 road_3_2_0 road_4_2_1 road_4_3_1"/>
    <route id="route_204" edges="road_0_3_0 road_1_3_3 road_1_2_0 road_2_2_3 road_2_1_3"/>
    <route id="route_205" edges="road_0_3_0 road_1_3_0 road_2_3_0 road_3_3_0 road_4_3_3 road_4_2_2 road_3_2_2 road_2_2_3 road_2_1_3"/>
    <route id="route_206" edges="road_0_3_0 road_1_3_0 road_2_3_0 road_3_3_3 road_3_2_3 road_3_1_2 road_2_1_2 road_1_1_3"/>
    <route id="route_207" edges="road_0_3_0 road_1_3_0 road_2_3_3 road_2_2_0 road_3_2_0 road_4_2_3 road_4_1_2 road_3_1_1 road_3_2_1 road_3_3_1"/>
    <route id="route_208" edges="road_0_3_0 road_1_3_0 road_2_3_0 road_3_3_0 road_4_3_3 road_4_2_2 road_3_2_2 road_2_2_2 road_1_2_3 road_1_1_3"/>
    <route id="route_209" edges="road_0_3_0 road_1_3_0 road_2_3_0 road_3_3_0 road_4_3_3 road_4_2_2 road_3_2_2 road_2_2_2 road_1_2_2"/>
    <route id="route_21" edges="road_0_2_0 road_1_2_1 road_1_3_2"/>
    <route id="route_210" edges="road_0_3_0 road_1_3_3 road_1_2_0 road_2_2_0 road_3_2_0 road_4_2_3 road_4_1_0"/>
    <route id="route_211" edges="road_0_3_0 road_1_3_0 road_2_3_0 road_3_3_3 road_3_2_3 road_3_1_2 road_2_1_1 road_2_2_1"/>
    <route id="route_212" edges="road_0_3_0 road_1_3_0 road_2_3_0 road_3_3_3 road_3_2_0 road_4_2_0"/>
    <route id="route_213" edges="road_0_3_0 road_1_3_0 road_2_3_0 road_3_3_0 road_4_3_3 road_4_2_3 road_4_1_2 road_3_1_2 road_2_1_1 road_2_2_2 road_1_2_1 road_1_3_1"/>
    <route id="route_214" edges="road_0_3_0 road_1_3_3 road_1_2_3 road_1_1_0 road_2_1_1 road_2_2_0 road_3_2_1 road_3_3_0 road_4_3_3 road_4_2_3 road_4_1_2 road_3_1_1"/>
    <route id="route_215" edges="road_0_3_0 road_1_3_0 road_2_3_3 road_2_2_3 road_2_1_0 road_3_1_3"/>
    <route id="route_216" edges="road_0_3_0 road_1_3_0 road_2_3_3 road_2_2_0 road_3_2_0 road_4_2_1 road_4_3_1"/>
    <route id="route_217" edges="road_0_3_0 road_1_3_0 road_2_3_3 road_2_2_3 road_2_1_0 road_3_1_1 road_3_2_1 road_3_3_1"/>
    <route id="route_218" edges="road_0_3_0 road_1_3_0 road_2_3_3 road_2_2_0 road_3_2_0 road_4_2_3 road_4_1_3"/>
    <route id="route_219" edges="road_0_3_0 road_1_3_0 road_2_3_3 road_2_2_0 road_3_2_1 road_3_3_1"/>
    <route id="route_22" edges="road_0_2_0 road_1_2_0 road_2_2_1 road_2_3_1"/>
    <route id="route_220" edges="road_0_3_0 road_1_3_0 road_2_3_0 road_3_3_0 road_4_3_3 road_4_2_3 road_4_1_2 road_3_1_1 road_3_2_0 road_4_2_0"/>
    <route id="route_221" edges="road_0_3_0 road_1_3_0 road_2_3_3 road_2_2_0 road_3_2_0 road_4_2_1 road_4_3_0"/>
    <route id="route_222" edges="road_0_3_0 road_1_3_0 road_2_3_3 road_2_2_3 road_2_1_0 road_3_1_1 road_3_2_1 road_3_3_2 road_2_3_2 road_1_3_2"/>
    <route id="route_223" edges="road_0_3_0 road_1_3_0 road_2_3_0 road_3_3_0 road_4_3_3 road_4_2_2 road_3_2_2 road_2_2_1 road_2_3_1"/>
    <route id="route_224" edges="road_0_3_0 road_1_3_0 road_2_3_0 road_3_3_0 road_4_3_3 road_4_2_3 road_4_1_2 road_3_1_2 road_2_1_2 road_1_1_1 road_1_2_0 road_2_2_3 road_2_1_3"/>
    <route id="route_225" edges="road_0_3_0 road_1_3_3 road_1_2_0 road_2_2_0 road_3_2_0 road_4_2_3 road_4_1_2 road_3_1_2 road_2_1_2 road_1_1_3"/>
    <route id="route_226" edges="road_0_3_0 road_1_3_0 road_2_3_0 road_3_3_0 road_4_3_3 road_4_2_3 road_4_1_2 road_3_1_2 road_2_1_3"/>
    <route id="route_227" edges="road_0_3_0 road_1_3_0 road_2_3_0 road_3_3_3 road_3_2_0 road_4_2_3 road_4_1_2 road_3_1_1 road_3_2_2 road_2_2_2 road_1_2_2"/>
    <route id="route_228" edges="road_5_1_2 road_4_1_1 road_4_2_0"/>
    <route id="route_229" edges="road_5_1_2 road_4_1_2 road_3_1_2 road_2_1_2 road_1_1_3"/>
    <route id="route_23" edges="road_0_2_0 road_1_2_0 road_2_2_0 road_3_2_0 road_4_2_1 road_4_3_1"/>
    <route id="route_230" edges="road_5_1_2 road_4_1_3"/>
    <route id="route_231" edges="road_5_1_2 road_4_1_2 road_3_1_1 road_3_2_2 road_2_2_2 road_1_2_2"/>
    <route id="route_232" edges="road_5_1_2 road_4_1_1 road_4_2_1 road_4_3_0"/>
    <route id="route_233" edges="road_5_1_2 road_4_1_2 road_3_1_2 road_2_1_1 road_2_2_2 road_1_2_2"/>
    <route id="route_234" edges="road_5_1_2 road_4_1_2 road_3_1_2 road_2_1_2 road_1_1_2"/>
    <route id="route_235" edges="road_5_1_2 road_4_1_2 road_3_1_1 road_3_2_1 road_3_3_1"/>
    <route id="route_236" edges="road_5_1_2 road_4_1_1 road_4_2_1 road_4_3_2 road_3_3_1"/>
    <route id="route_237" edges="road_5_1_2 road_4_1_1 road_4_2_1 road_4_3_1"/>
    <route id="route_238" edges="road_5_1_2 road_4_1_1 road_4_2_1 road_4_3_2 road_3_3_2 road_2_3_2 road_1_3_3 road_1_2_3 road_1_1_0 road_2_1_0 road_3_1_0 road_4_1_3"/>
    <route id="route_239" edges="road_5_1_2 road_4_1_1 road_4_2_2 road_3_2_2 road_2_2_2 road_1_2_2"/>
    <route id="route_24" edges="road_0_2_0 road_1_2_3 road_1_1_0 road_2_1_0 road_3_1_0 road_4_1_3"/>
    <route id="route_240" edges="road_5_1_2 road_4_1_2 road_3_1_2 road_2_1_1 road_2_2_1 road_2_3_0 road_3_3_0 road_4_3_3 road_4_2_3 road_4_1_3"/>
    <route id="route_241" edges="road_5_1_2 road_4_1_2 road_3_1_2 road_2_1_3"/>
    <route id="route_242" edges="road_5_1_2 road_4_1_2 road_3_1_2 road_2_1_1 road_2_2_2 road_1_2_3 road_1_1_2"/>
    <route id="route_243" edges="road_5_1_2 road_4_1_2 road_3_1_3"/>
    <route id="route_244" edges="road_5_1_2 road_4_1_2 road_3_1_2 road_2_1_1 road_2_2_1 road_2_3_1"/>
    <route id="route_245" edges="road_5_1_2 road_4_1_1 road_4_2_1 road_4_3_2 road_3_3_2 road_2_3_3 road_2_2_3 road_2_1_2 road_1_1_3"/>
    <route id="route_246" edges="road_5_1_2 road_4_1_2 road_3_1_1 road_3_2_2 road_2_2_3 road_2_1_3"/>
    <route id="route_247" edges="road_5_1_2 road_4_1_1 road_4_2_1 road_4_3_2 road_3_3_2 road_2_3_2 road_1_3_2"/>
    <route id="route_248" edges="road_5_1_2 road_4_1_2 road_3_1_2 road_2_1_1 road_2_2_0 road_3_2_0 road_4_2_0"/>
    <route id="route_249" edges="road_5_1_2 road_4_1_1 road_4_2_1 road_4_3_2 road_3_3_2 road_2_3_3 road_2_2_3 road_2_1_0 road_3_1_0 road_4_1_3"/>
    <route id="route_25" edges="road_0_2_0 road_1_2_3 road_1_1_0 road_2_1_0 road_3_1_0 road_4_1_1 road_4_2_1 road_4_3_1"/>
    <route id="route_250" edges="road_5_1_2 road_4_1_1 road_4_2_1 road_4_3_2 road_3_3_2 road_2_3_3 road_2_2_3 road_2_1_3"/>
    <route id="route_251" edges="road_5_1_2 road_4_1_2 road_3_1_1 road_3_2_1 road_3_3_0 road_4_3_0"/>
    <route id="route_252" edges="road_5_1_2 road_4_1_2 road_3_1_1 road_3_2_1 road_3_3_2 road_2_3_3 road_2_2_0 road_3_2_0 road_4_2_3 road_4_1_3"/>
    <route id="route_253" edges="road_5_1_2 road_4_1_2 road_3_1_2 road_2_1_1 road_2_2_1 road_2_3_2 road_1_3_2"/>
    <route id="route_254" edges="road_5_1_2 road_4_1_1 road_4_2_1 road_4_3_2 road_3_3_2 road_2_3_2 road_1_3_1"/>
    <route id="route_255" edges="road_5_1_2 road_4_1_2 road_3_1_1 road_3_2_1 road_3_3_0 road_4_3_1"/>
    <route id="route_256" edges="road_5_1_2 road_4_1_1 road_4_2_2 road_3_2_2 road_2_2_2 road_1_2_1 road_1_3_0 road_2_3_0 road_3_3_0 road_4_3_3 road_4_2_3 road_4_1_3"/>
    <route id="route_257" edges="road_5_1_2 road_4_1_2 road_3_1_1 road_3_2_1 road_3_3_0 road_4_3_3 road_4_2_3 road_4_1_3"/>
    <route id="route_258" edges="road_5_1_2 road_4_1_1 road_4_2_2 road_3_2_2 road_2_2_1 road_2_3_1"/>
    <route id="route_259" edges="road_5_1_2 road_4_1_2 road_3_1_2 road_2_1_2 road_1_1_1 road_1_2_1 road_1_3_1"/>
    <route id="route_26" edges="road_0_2_0 road_1_2_0 road_2_2_3 road_2_1_0 road_3_1_3"/>
    <route id="route_260" edges="road_5_1_2 road_4_1_2 road_3_1_2 road_2_1_1 road_2_2_1 road_2_3_0 road_3_3_0 road_4_3_1"/>
    <route id="route_261" edges="road_5_1_2 road_4_1_1 road_4_2_1 road_4_3_2 road_3_3_2 road_2_3_1"/>
    <route id="route_262" edges="road_5_1_2 road_4_1_1 road_4_2_1 road_4_3_2 road_3_3_2 road_2_3_3 road_2_2_3 road_2_1_2 road_1_1_2"/>
    <route id="route_263" edges="road_5_1_2 road_4_1_2 road_3_1_2 road_2_1_2 road_1_1_1 road_1_2_0 road_2_2_0 road_3_2_0 road_4_2_0"/>
    <route id="route_264" edges="road_5_1_2 road_4_1_2 road_3_1_1 road_3_2_1 road_3_3_2 road_2_3_2 road_1_3_2"/>
    <route id="route_265" edges="road_5_1_2 road_4_1_2 road_3_1_1 road_3_2_0 road_4_2_1 road_4_3_2 road_3_3_2 road_2_3_2 road_1_3_2"/>
    <route id="route_266" edges="road_5_1_2 road_4_1_2 road_3_1_1 road_3_2_1 road_3_3_2 road_2_3_2 road_1_3_1"/>
    <route id="route_267" edges="road_5_1_2 road_4_1_1 road_4_2_1 road_4_3_2 road_3_3_3 road_3_2_3 road_3_1_0 road_4_1_0"/>
    <route id="route_268" edges="road_5_1_2 road_4_1_1 road_4_2_2 road_3_2_2 road_2_2_3 road_2_1_2 road_1_1_1 road_1_2_1 road_1_3_1"/>
    <route id="route_269" edges="road_5_1_2 road_4_1_2 road_3_1_2 road_2_1_2 road_1_1_1 road_1_2_1 road_1_3_0 road_2_3_3 road_2_2_3 road_2_1_3"/>
    <route id="route_27" edges="road_0_2_0 road_1_2_1 road_1_3_0 road_2_3_1"/>
    <route id="route_270" edges="road_5_1_2 road_4_1_2 road_3_1_1 road_3_2_0 road_4_2_0"/>
    <route id="route_271" edges="road_5_1_2 road_4_1_2 road_3_1_2 road_2_1_1 road_2_2_1 road_2_3_2 road_1_3_3 road_1_2_3 road_1_1_0 road_2_1_3"/>
    <route id="route_272" edges="road_5_1_2 road_4_1_2 road_3_1_2 road_2_1_1 road_2_2_1 road_2_3_2 road_1_3_1"/>
    <route id="route_273" edges="road_5_1_2 road_4_1_2 road_3_1_1 road_3_2_1 road_3_3_0 road_4_3_3 road_4_2_3"/>
    <route id="route_274" edges="road_5_3_2 road_4_3_3 road_4_2_3 road_4_1_3"/>
    <route id="route_275" edges="road_5_3_2 road_4_3_1"/>
    <route id="route_276" edges="road_5_3_2 road_4_3_3 road_4_2_3 road_4_1_2 road_3_1_1 road_3_2_1 road_3_3_1"/>
    <route id="route_277" edges="road_5_3_2 road_4_3_3 road_4_2_3 road_4_1_2 road_3_1_2 road_2_1_2 road_1_1_2"/>
    <route id="route_278" edges="road_5_3_2 road_4_3_2 road_3_3_2 road_2_3_2 road_1_3_1"/>
    <route id="route_279" edges="road_5_3_2 road_4_3_3 road_4_2_3 road_4_1_2 road_3_1_3"/>
    <route id="route_28" edges="road_0_2_0 road_1_2_0 road_2_2_3 road_2_1_2 road_1_1_1"/>
    <route id="route_280" edges="road_5_3_2 road_4_3_2 road_3_3_2 road_2_3_2 road_1_3_2"/>
    <route id="route_281" edges="road_5_3_2 road_4_3_2 road_3_3_2 road_2_3_3 road_2_2_3 road_2_1_3"/>
    <route id="route_282" edges="road_5_3_2 road_4_3_3 road_4_2_3 road_4_1_2 road_3_1_1 road_3_2_1 road_3_3_0 road_4_3_0"/>
    <route id="route_283" edges="road_5_3_2 road_4_3_3 road_4_2_2 road_3_2_2 road_2_2_2 road_1_2_2"/>
    <route id="route_284" edges="road_5_3_2 road_4_3_3 road_4_2_3 road_4_1_2 road_3_1_1 road_3_2_0 road_4_2_0"/>
    <route id="route_285" edges="road_5_3_2 road_4_3_2 road_3_3_3 road_3_2_3 road_3_1_3"/>
    <route id="route_286" edges="road_5_3_2 road_4_3_2 road_3_3_2 road_2_3_2 road_1_3_3 road_1_2_3 road_1_1_2"/>
    <route id="route_287" edges="road_5_3_2 road_4_3_2 road_3_3_2 road_2_3_1"/>
    <route id="route_288" edges="road_5_3_2 road_4_3_2 road_3_3_1"/>
    <route id="route_289" edges="road_5_3_2 road_4_3_2 road_3_3_3 road_3_2_2 road_2_2_2 road_1_2_3 road_1_1_3"/>
    <route id="route_29" edges="road_0_2_0 road_1_2_0 road_2_2_1 road_2_3_2 road_1_3_3 road_1_2_3 road_1_1_0 road_2_1_1"/>
    <route id="route_290" edges="road_5_3_2 road_4_3_2 road_3_3_3 road_3_2_3 road_3_1_0 road_4_1_3"/>
    <route id="route_291" edges="road_5_3_2 road_4_3_3 road_4_2_3 road_4_1_2 road_3_1_1 road_3_2_1 road_3_3_0"/>
    <route id="route_292" edges="road_5_3_2 road_4_3_3 road_4_2_3 road_4_1_0"/>
    <route id="route_293" edges="road_5_3_2 road_4_3_3 road_4_2_3 road_4_1_2 road_3_1_2 road_2_1_1 road_2_2_2 road_1_2_3 road_1_1_2"/>
    <route id="route_294" edges="road_5_3_2 road_4_3_3 road_4_2_3 road_4_1_2 road_3_1_1 road_3_2_2 road_2_2_1 road_2_3_1"/>
    <route id="route_295" edges="road_5_3_2 road_4_3_3 road_4_2_2 road_3_2_2 road_2_2_3 road_2_1_2 road_1_1_3"/>
    <route id="route_296" edges="road_5_3_2 road_4_3_3 road_4_2_3 road_4_1_2 road_3_1_1 road_3_2_1 road_3_3_2 road_2_3_3 road_2_2_3 road_2_1_0"/>
    <route id="route_297" edges="road_5_3_2 road_4_3_3 road_4_2_2 road_3_2_2 road_2_2_3 road_2_1_3"/>
    <route id="route_298" edges="road_5_3_2 road_4_3_2 road_3_3_2 road_2_3_3 road_2_2_3 road_2_1_0 road_3_1_1 road_3_2_1"/>
    <route id="route_299" edges="road_5_3_2 road_4_3_3 road_4_2_3 road_4_1_2 road_3_1_2 road_2_1_1 road_2_2_1 road_2_3_0 road_3_3_3 road_3_2_2 road_2_2_2 road_1_2_1 road_1_3_0"/>
    <route id="route_3" edges="road_0_2_0 road_1_2_0 road_2_2_3 road_2_1_0 road_3_1_0 road_4_1_0"/>
    <route id="route_30" edges="road_0_2_0 road_1_2_1 road_1_3_0 road_2_3_3 road_2_2_2"/>
    <route id="route_300" edges="road_5_3_2 road_4_3_2 road_3_3_2 road_2_3_3 road_2_2_3 road_2_1_2 road_1_1_2"/>
    <route id="route_301" edges="road_5_3_2 road_4_3_2 road_3_3_2 road_2_3_3 road_2_2_2 road_1_2_2"/>
    <route id="route_302" edges="road_5_3_2 road_4_3_3 road_4_2_3 road_4_1_2 road_3_1_2 road_2_1_2 road_1_1_3"/>
    <route id="route_303" edges="road_5_3_2 road_4_3_3 road_4_2_0"/>
    <route id="route_304" edges="road_5_3_2 road_4_3_2 road_3_3_2 road_2_3_3 road_2_2_3 road_2_1_0 road_3_1_0 road_4_1_3"/>
    <route id="route_305" edges="road_5_3_2 road_4_3_3 road_4_2_3 road_4_1_2 road_3_1_2 road_2_1_3"/>
    <route id="route_306" edges="road_5_3_2 road_4_3_3 road_4_2_3 road_4_1_2 road_3_1_2 road_2_1_2 road_1_1_1 road_1_2_1 road_1_3_1"/>
    <route id="route_307" edges="road_5_3_2 road_4_3_3 road_4_2_3 road_4_1_2 road_3_1_2 road_2_1_2 road_1_1_1 road_1_2_0 road_2_2_1 road_2_3_1"/>
    <route id="route_308" edges="road_5_3_2 road_4_3_3 road_4_2_3 road_4_1_2 road_3_1_2 road_2_1_1 road_2_2_1 road_2_3_0 road_3_3_0 road_4_3_1"/>
    <route id="route_309" edges="road_5_3_2 road_4_3_2 road_3_3_3 road_3_2_2 road_2_2_1 road_2_3_1"/>
    <route id="route_31" edges="road_0_2_0 road_1_2_0 road_2_2_0 road_3_2_3 road_3_1_0 road_4_1_3"/>
    <route id="route_310" edges="road_5_3_2 road_4_3_2 road_3_3_2 road_2_3_3 road_2_2_0 road_3_2_3 road_3_1_3"/>
    <route id="route_311" edges="road_5_2_2 road_4_2_2 road_3_2_2 road_2_2_2 road_1_2_2"/>
    <route id="route_312" edges="road_5_2_2 road_4_2_2 road_3_2_3 road_3_1_2 road_2_1_2 road_1_1_2"/>
    <route id="route_313" edges="road_5_2_2 road_4_2_2 road_3_2_2 road_2_2_2 road_1_2_1 road_1_3_0 road_2_3_3 road_2_2_3 road_2_1_0 road_3_1_3"/>
    <route id="route_314" edges="road_5_2_2 road_4_2_1 road_4_3_2 road_3_3_2 road_2_3_2 road_1_3_2"/>
    <route id="route_315" edges="road_5_2_2 road_4_2_1 road_4_3_0"/>
    <route id="route_316" edges="road_5_2_2 road_4_2_2 road_3_2_2 road_2_2_3 road_2_1_2 road_1_1_2"/>
    <route id="route_317" edges="road_5_2_2 road_4_2_2 road_3_2_2 road_2_2_2 road_1_2_1 road_1_3_1"/>
    <route id="route_318" edges="road_5_2_2 road_4_2_2 road_3_2_2 road_2_2_1 road_2_3_0 road_3_3_0 road_4_3_1"/>
    <route id="route_319" edges="road_5_2_2 road_4_2_2 road_3_2_2 road_2_2_2 road_1_2_1 road_1_3_0 road_2_3_0 road_3_3_0 road_4_3_0"/>
    <route id="route_32" edges="road_0_2_0 road_1_2_0 road_2_2_0 road_3_2_3 road_3_1_2 road_2_1_1"/>
    <route id="route_320" edges="road_5_2_2 road_4_2_3 road_4_1_3"/>
    <route id="route_321" edges="road_5_2_2 road_4_2_2 road_3_2_2 road_2_2_2 road_1_2_1 road_1_3_2"/>
    <route id="route_322" edges="road_5_2_2 road_4_2_2 road_3_2_3 road_3_1_0 road_4_1_1 road_4_2_1 road_4_3_0"/>
    <route id="route_323" edges="road_5_2_2 road_4_2_2 road_3_2_1 road_3_3_0 road_4_3_1"/>
    <route id="route_324" edges="road_5_2_2 road_4_2_2 road_3_2_2 road_2_2_2 road_1_2_3 road_1_1_0 road_2_1_3"/>
    <route id="route_325" edges="road_5_2_2 road_4_2_2 road_3_2_2 road_2_2_1 road_2_3_2 road_1_3_2"/>
    <route id="route_326" edges="road_5_2_2 road_4_2_2 road_3_2_2 road_2_2_2 road_1_2_3 road_1_1_3"/>
    <route id="route_327" edges="road_5_2_2 road_4_2_1 road_4_3_2 road_3_3_2 road_2_3_1"/>
    <route id="route_328" edges="road_5_2_2 road_4_2_2 road_3_2_2 road_2_2_3 road_2_1_2 road_1_1_3"/>
    <route id="route_329" edges="road_5_2_2 road_4_2_2 road_3_2_2 road_2_2_1 road_2_3_1"/>
    <route id="route_33" edges="road_0_2_0 road_1_2_0 road_2_2_3 road_2_1_2 road_1_1_2"/>
    <route id="route_330" edges="road_5_2_2 road_4_2_2 road_3_2_2 road_2_2_2 road_1_2_1 road_1_3_0 road_2_3_1"/>
    <route id="route_331" edges="road_5_2_2 road_4_2_2 road_3_2_1 road_3_3_1"/>
    <route id="route_332" edges="road_5_2_2 road_4_2_2 road_3_2_2 road_2_2_2 road_1_2_1 road_1_3_0 road_2_3_3 road_2_2_3 road_2_1_2 road_1_1_1"/>