<?xml version="1.0" encoding="UTF-8"?>
<routes xmlns:xsi="http://www.w3.org/2001/XMLSchema-instance" xsi:noNamespaceSchemaLocation="http://sumo.dlr.de/xsd/routes_file.xsd">
	<vType id="pkw" vClass="passenger" speedDev="0.1" length="4.3" minGap="1.5"/>
	<trip id="137312_412_0" type="pkw" depart="25200.00" from="-23283579#1" to="23283436"/>
	<trip id="155570_420_0" type="pkw" depart="25200.00" from="-28675510#11" to="28675510#7"/>
	<trip id="114597_403_0" type="pkw" depart="25201.00" from="22917421#3" to="-186623965#14"/>
	<trip id="76230_386_0" type="pkw" depart="25204.00" from="-23283579#1" to="297047309#0"/>
	<trip id="156485_420_0" type="pkw" depart="25205.00" from="22959552#0" to="28675510#7"/>
	<trip id="110248_401_0" type="pkw" depart="25206.00" from="-23283579#1" to="297047309#0"/>
	<trip id="134603_411_0" type="pkw" depart="25206.00" from="-28675510#11" to="28675510#7"/>
	<trip id="166776_424_0" type="pkw" depart="25208.00" from="-28675510#11" to="-186623965#14"/>
	<trip id="137959_412_0" type="pkw" depart="25209.00" from="-186623965#18" to="-22917421#4"/>
	<trip id="146152_416_0" type="pkw" depart="25210.00" from="25166682#0" to="28675510#7"/>
	<trip id="140143_414_0" type="pkw" depart="25210.00" from="-28675510#11" to="28675510#7"/>
	<trip id="134167_411_0" type="pkw" depart="25211.00" from="-23283579#1" to="-186623965#14"/>
	<trip id="163043_422_0" type="pkw" depart="25212.00" from="-28675510#11" to="8716827#0"/>
	<trip id="160358_421_0" type="pkw" depart="25213.00" from="-23283579#1" to="-186623965#14"/>
	<trip id="135663_411_0" type="pkw" depart="25214.00" from="-28675510#11" to="28675510#7"/>
	<trip id="149045_417_0" type="pkw" depart="25217.00" from="-28675510#11" to="28675510#7"/>
	<trip id="142890_415_0" type="pkw" depart="25218.00" from="-23283579#1" to="23283579#1"/>
	<trip id="158885_421_0" type="pkw" depart="25220.00" from="22917421#3" to="28675510#7"/>
	<trip id="146111_416_0" type="pkw" depart="25221.00" from="-28675510#11" to="-186623965#14"/>
	<trip id="140525_414_0" type="pkw" depart="25221.00" from="186623965#9" to="186623965#17"/>
	<trip id="117517_404_0" type="pkw" depart="25224.00" from="-28675510#11" to="-186623965#14"/>
	<trip id="119181_405_0" type="pkw" depart="25226.00" from="186623965#9" to="42925825#0"/>
	<trip id="133416_410_0" type="pkw" depart="25228.00" from="186623965#9" to="42925825#0"/>
	<trip id="131237_409_0" type="pkw" depart="25228.00" from="-186623965#18" to="297047309#0"/>
	<trip id="138070_412_0" type="pkw" depart="25229.00" from="22917421#3" to="186623965#17"/>
	<trip id="152887_419_0" type="pkw" depart="25229.00" from="-28675510#11" to="8716827#0"/>
	<trip id="141355_415_0" type="pkw" depart="25232.00" from="-186623965#18" to="42925825#0"/>
	<trip id="153496_420_0" type="pkw" depart="25232.00" from="22917421#3" to="186623965#17"/>
	<trip id="154212_420_0" type="pkw" depart="25232.00" from="-28675510#11" to="-186623965#14"/>
	<trip id="161942_421_0" type="pkw" depart="25233.00" from="-42925825#2" to="42925825#0"/>
	<trip id="166162_424_0" type="pkw" depart="25233.00" from="22959550#0" to="28675510#7"/>
	<trip id="155353_420_0" type="pkw" depart="25234.00" from="22917421#3" to="186623965#17"/>
	<trip id="124742_406_0" type="pkw" depart="25236.00" from="22917421#3" to="28675493"/>
	<trip id="131071_409_0" type="pkw" depart="25236.00" from="-186623965#18" to="42925825#0"/>
	<trip id="134428_411_0" type="pkw" depart="25237.00" from="-28675510#11" to="28675510#7"/>
	<trip id="126900_407_0" type="pkw" depart="25239.00" from="-186623965#18" to="42925825#0"/>
	<trip id="164302_422_0" type="pkw" depart="25240.00" from="-28675510#11" to="-186623965#14"/>
	<trip id="158136_421_0" type="pkw" depart="25240.00" from="28675510#1" to="323416262"/>
	<trip id="126698_407_0" type="pkw" depart="25241.00" from="-186623965#18" to="42925825#0"/>
	<trip id="122140_406_0" type="pkw" depart="25244.00" from="22917421#3" to="23648008#2"/>
	<trip id="163025_422_0" type="pkw" depart="25246.00" from="-28675510#11" to="8716807#1"/>
	<trip id="118788_405_0" type="pkw" depart="25247.00" from="22917421#3" to="186623965#17"/>
	<trip id="131243_409_0" type="pkw" depart="25248.00" from="-186623965#18" to="-186623965#14"/>
	<trip id="161216_421_0" type="pkw" depart="25248.00" from="-186623965#18" to="42925825#0"/>
	<trip id="113370_402_0" type="pkw" depart="25249.00" from="186623965#9" to="42925825#0"/>
	<trip id="159622_421_0" type="pkw" depart="25251.00" from="-186623965#18" to="42925825#0"/>
	<trip id="163799_422_0" type="pkw" depart="25255.00" from="-186623965#18" to="-22917421#4"/>
	<trip id="129175_408_0" type="pkw" depart="25255.00" from="-23283579#1" to="323450710#0"/>
	<trip id="173747_427_0" type="pkw" depart="25256.00" from="23283580#0" to="28675510#7"/>
	<trip id="144617_416_0" type="pkw" depart="25256.00" from="22917421#3" to="186623965#17"/>
	<trip id="127809_407_0" type="pkw" depart="25257.00" from="-23283579#1" to="23285888#0"/>
	<trip id="145282_416_0" type="pkw" depart="25259.00" from="186623965#9" to="42925825#0"/>
	<trip id="84611_390_0" type="pkw" depart="25261.00" from="-23283579#1" to="-23648008#0"/>
	<trip id="138793_413_0" type="pkw" depart="25264.00" from="-297047309#0" to="28675510#7"/>
	<trip id="162890_422_0" type="pkw" depart="25264.00" from="8716807#1" to="28675510#7"/>
	<trip id="111571_401_0" type="pkw" depart="25267.00" from="-353069169#0" to="24487264"/>
	<trip id="121484_406_0" type="pkw" depart="25268.00" from="-23283579#1" to="133081987#3"/>
	<trip id="91556_392_0" type="pkw" depart="25270.00" from="-23283579#1" to="23840972"/>
	<trip id="147744_416_0" type="pkw" depart="25272.00" from="-186623965#18" to="42925825#0"/>
	<trip id="105090_398_0" type="pkw" depart="25273.00" from="-23283579#1" to="-186623965#14"/>
	<trip id="162497_421_0" type="pkw" depart="25273.00" from="22917421#3" to="186623965#17"/>
	<trip id="142950_415_0" type="pkw" depart="25274.00" from="-28675510#11" to="155723703#0"/>
	<trip id="107217_400_0" type="pkw" depart="25283.00" from="-28675510#11" to="-186623965#14"/>
	<trip id="174787_427_0" type="pkw" depart="25287.00" from="22959550#3" to="28675510#7"/>
	<trip id="150593_418_0" type="pkw" depart="25297.00" from="22959552#0" to="22959552#0"/>
	<trip id="152801_419_0" type="pkw" depart="25299.00" from="-297047307" to="297047309#0"/>
	<trip id="157572_421_0" type="pkw" depart="25303.00" from="23283470#0" to="323416262"/>
	<trip id="139269_413_0" type="pkw" depart="25307.00" from="-23283579#1" to="-297047308"/>
	<trip id="145512_416_0" type="pkw" depart="25308.00" from="22917421#3" to="186623965#17"/>
	<trip id="149422_417_0" type="pkw" depart="25310.00" from="22917421#3" to="-23840935"/>
	<trip id="140363_414_0" type="pkw" depart="25313.00" from="22917421#3" to="-186623965#14"/>
	<trip id="146391_416_0" type="pkw" depart="25313.00" from="-28675510#0" to="28675510#7"/>
	<trip id="171749_426_0" type="pkw" depart="25314.00" from="-23283579#1" to="-297047309#0"/>
	<trip id="138639_413_0" type="pkw" depart="25314.00" from="186623965#9" to="186623965#17"/>
	<trip id="148207_417_0" type="pkw" depart="25320.00" from="-186623965#18" to="42925825#0"/>
	<trip id="146387_416_0" type="pkw" depart="25321.00" from="-28675510#11" to="-186623965#14"/>
	<trip id="175709_428_0" type="pkw" depart="25324.00" from="-186623965#18" to="-186623965#14"/>
	<trip id="171184_426_0" type="pkw" depart="25326.00" from="133081987#0" to="23283436"/>
	<trip id="175131_428_0" type="pkw" depart="25328.00" from="23840713#2" to="42925825#0"/>
	<trip id="150411_418_0" type="pkw" depart="25329.00" from="22917421#3" to="23840972"/>
	<trip id="137686_412_0" type="pkw" depart="25330.00" from="-186623965#18" to="42925825#0"/>
	<trip id="148039_417_0" type="pkw" depart="25331.00" from="-186623965#16" to="186623965#17"/>
	<trip id="149205_417_0" type="pkw" depart="25338.00" from="8716807#1" to="323416262"/>
	<trip id="109527_401_0" type="pkw" depart="25339.00" from="-23283579#1" to="297047309#0"/>
	<trip id="120970_405_0" type="pkw" depart="25343.00" from="-23283579#1" to="23283470#5"/>
	<trip id="164277_422_0" type="pkw" depart="25343.00" from="23285888#0" to="297047309#0"/>
	<trip id="144017_416_0" type="pkw" depart="25348.00" from="-353069169#0" to="323416262"/>
	<trip id="166783_424_0" type="pkw" depart="25349.00" from="22917421#3" to="186623965#17"/>
	<trip id="108769_400_0" type="pkw" depart="25356.00" from="-186623965#18" to="-22917421#4"/>
	<trip id="148419_417_0" type="pkw" depart="25363.00" from="133081987#3" to="297047309#0"/>
	<trip id="146495_416_0" type="pkw" depart="25369.00" from="23840712#0" to="-186623965#14"/>
	<trip id="96268_394_0" type="pkw" depart="25369.00" from="-186623965#18" to="-22917421#4"/>
	<trip id="138031_412_0" type="pkw" depart="25371.00" from="-23283579#1" to="-23840935"/>
	<trip id="174717_427_0" type="pkw" depart="25373.00" from="22917421#3" to="186623965#17"/>
	<trip id="158300_421_0" type="pkw" depart="25375.00" from="-23283579#1" to="-23648008#0"/>
	<trip id="142307_415_0" type="pkw" depart="25375.00" from="22917421#3" to="186623965#17"/>
	<trip id="167565_425_0" type="pkw" depart="25382.00" from="-25166682#0" to="23283579#1"/>
	<trip id="139530_413_0" type="pkw" depart="25383.00" from="186623965#9" to="42925825#0"/>
	<trip id="179907_430_0" type="pkw" depart="25383.00" from="23283470#0" to="23283579#1"/>
	<trip id="149274_417_0" type="pkw" depart="25385.00" from="-297047309#0" to="-23840888#0"/>
	<trip id="109384_401_0" type="pkw" depart="25386.00" from="186623965#9" to="323450710#0"/>
	<trip id="139438_413_0" type="pkw" depart="25387.00" from="-297047309#0" to="28675510#7"/>
	<trip id="157954_421_0" type="pkw" depart="25388.00" from="22917421#3" to="186623965#17"/>
	<trip id="139869_414_0" type="pkw" depart="25389.00" from="-28675510#11" to="186623965#17"/>
	<trip id="153335_420_0" type="pkw" depart="25403.00" from="-23283579#1" to="297047309#0"/>
	<trip id="164388_422_0" type="pkw" depart="25405.00" from="-186623965#18" to="-22917421#4"/>
	<trip id="169793_426_0" type="pkw" depart="25405.00" from="290365598#0" to="-186623965#14"/>
	<trip id="145712_416_0" type="pkw" depart="25405.00" from="-28675510#0" to="28675510#7"/>
	<trip id="146699_416_0" type="pkw" depart="25406.00" from="-23283579#1" to="297047309#0"/>
	<trip id="83049_390_0" type="pkw" depart="25408.00" from="-4936412" to="8716827#0"/>
	<trip id="154420_420_0" type="pkw" depart="25411.00" from="22917421#3" to="186623965#17"/>
	<trip id="67978_381_0" type="pkw" depart="25412.00" from="-4936412" to="8716827#0"/>
	<trip id="177639_429_0" type="pkw" depart="25414.00" from="-186623965#18" to="23283473"/>
	<trip id="149528_417_0" type="pkw" depart="25414.00" from="-23840712#0" to="28675510#7"/>
	<trip id="118988_405_0" type="pkw" depart="25415.00" from="-186623965#18" to="-22917421#4"/>
	<trip id="171631_426_0" type="pkw" depart="25415.00" from="23283470#0" to="23283579#1"/>
	<trip id="161682_421_0" type="pkw" depart="25419.00" from="-23840712#0" to="28675510#7"/>
	<trip id="154646_420_0" type="pkw" depart="25419.00" from="25166682#0" to="323450710#0"/>
	<trip id="168963_425_0" type="pkw" depart="25422.00" from="-28675493" to="23283579#1"/>
	<trip id="165190_423_0" type="pkw" depart="25427.00" from="-186623965#18" to="-23840935"/>
	<trip id="122677_406_0" type="pkw" depart="25441.00" from="-4936412" to="8716827#0"/>
	<trip id="150535_418_0" type="pkw" depart="25444.00" from="22917421#3" to="186623965#17"/>
	<trip id="166238_424_0" type="pkw" depart="25449.00" from="42925825#0" to="42925825#0"/>
	<trip id="171497_426_0" type="pkw" depart="25456.00" from="23647126" to="23283579#1"/>
	<trip id="139487_413_0" type="pkw" depart="25456.00" from="-4936412" to="8716827#0"/>
	<trip id="148577_417_0" type="pkw" depart="25457.00" from="186623965#9" to="42925825#0"/>
	<trip id="118123_405_0" type="pkw" depart="25458.00" from="-186623965#18" to="-23840935"/>
	<trip id="131441_410_0" type="pkw" depart="25459.00" from="-297047309#0" to="23283579#1"/>
	<trip id="151819_419_0" type="pkw" depart="25464.00" from="22917421#3" to="186623965#17"/>
	<trip id="137017_412_0" type="pkw" depart="25466.00" from="-186623965#18" to="-22917421#4"/>
	<trip id="154649_420_0" type="pkw" depart="25466.00" from="22959550#3" to="42925825#0"/>
	<trip id="166158_424_0" type="pkw" depart="25467.00" from="-297047309#0" to="23283579#1"/>
	<trip id="131919_410_0" type="pkw" depart="25467.00" from="-186623965#18" to="297047309#0"/>
	<trip id="105921_399_0" type="pkw" depart="25468.00" from="186623965#9" to="42925825#0"/>
	<trip id="110653_401_0" type="pkw" depart="25471.00" from="186623965#9" to="42925825#0"/>
	<trip id="156503_420_0" type="pkw" depart="25472.00" from="297047308" to="297047309#0"/>
	<trip id="136088_411_0" type="pkw" depart="25475.00" from="-4936412" to="8716827#0"/>
	<trip id="173519_427_0" type="pkw" depart="25477.00" from="22917421#3" to="186623965#17"/>
	<trip id="148727_417_0" type="pkw" depart="25479.00" from="23283579#1" to="23283579#1"/>
	<trip id="143994_416_0" type="pkw" depart="25481.00" from="186623965#9" to="42925825#0"/>
	<trip id="161175_421_0" type="pkw" depart="25484.00" from="-23283579#1" to="-186623965#14"/>
	<trip id="115107_403_0" type="pkw" depart="25488.00" from="-4936412" to="8716827#0"/>
	<trip id="110175_401_0" type="pkw" depart="25490.00" from="-4936412" to="155723703#0"/>
	<trip id="82749_390_0" type="pkw" depart="25496.00" from="-4936412" to="155723703#0"/>
	<trip id="177623_429_0" type="pkw" depart="25497.00" from="23647118" to="297047309#0"/>
	<trip id="119370_405_0" type="pkw" depart="25498.00" from="-186623965#18" to="-28675493"/>
	<trip id="104777_398_0" type="pkw" depart="25500.00" from="-4936412" to="8716827#0"/>
	<trip id="162709_422_0" type="pkw" depart="25501.00" from="28675510#1" to="42925825#0"/>
	<trip id="157758_421_0" type="pkw" depart="25504.00" from="186623965#9" to="42925825#0"/>
	<trip id="173176_427_0" type="pkw" depart="25514.00" from="-42925825#2" to="60909001"/>
	<trip id="183261_431_0" type="pkw" depart="25516.00" from="23840713#2" to="42925825#0"/>
	<trip id="148572_417_0" type="pkw" depart="25517.00" from="-186623965#18" to="323450710#0"/>
	<trip id="175527_428_0" type="pkw" depart="25518.00" from="-42925825#2" to="-297047310#2"/>
	<trip id="155960_420_0" type="pkw" depart="25521.00" from="-23283472#2" to="23283436"/>
	<trip id="133805_411_0" type="pkw" depart="25523.00" from="-23283579#1" to="23840972"/>
	<trip id="148797_417_0" type="pkw" depart="25525.00" from="-23283579#1" to="42925825#0"/>
	<trip id="176921_429_0" type="pkw" depart="25527.00" from="-23283579#1" to="28675510#7"/>
	<trip id="150719_418_0" type="pkw" depart="25527.00" from="-25166682#0" to="28675510#7"/>
	<trip id="163211_422_0" type="pkw" depart="25529.00" from="-23283579#1" to="-186623965#14"/>
	<trip id="172172_426_0" type="pkw" depart="25533.00" from="22917421#3" to="42925825#0"/>
	<trip id="163292_422_0" type="pkw" depart="25540.00" from="-23283579#1" to="42925825#0"/>
	<trip id="160003_421_0" type="pkw" depart="25540.00" from="23283580#0" to="23286179#2"/>
	<trip id="164927_423_0" type="pkw" depart="25543.00" from="-23283579#1" to="297047309#0"/>
	<trip id="164812_422_0" type="pkw" depart="25543.00" from="-23840712#0" to="297047309#0"/>
	<trip id="161177_421_0" type="pkw" depart="25544.00" from="23840712#1" to="297047309#0"/>
	<trip id="150368_418_0" type="pkw" depart="25546.00" from="-186623965#18" to="-290365598#1"/>
	<trip id="165987_424_0" type="pkw" depart="25547.00" from="186623965#9" to="42925825#0"/>
	<trip id="142315_415_0" type="pkw" depart="25548.00" from="-23283579#1" to="297047309#0"/>
	<trip id="121828_406_0" type="pkw" depart="25550.00" from="-23283579#1" to="23648008#2"/>
	<trip id="154381_420_0" type="pkw" depart="25552.00" from="22959550#3" to="28675510#7"/>
	<trip id="81429_389_0" type="pkw" depart="25552.00" from="-23283579#1" to="23647126"/>
	<trip id="161283_421_0" type="pkw" depart="25554.00" from="-23283579#1" to="-186623965#14"/>
	<trip id="188348_433_0" type="pkw" depart="25554.00" from="28675510#1" to="42925825#0"/>
	<trip id="179877_430_0" type="pkw" depart="25555.00" from="23283580#0" to="23286179#2"/>
	<trip id="173080_427_0" type="pkw" depart="25556.00" from="22917421#3" to="186623965#17"/>
	<trip id="140513_414_0" type="pkw" depart="25558.00" from="-23283579#1" to="297047309#0"/>
	<trip id="154500_420_0" type="pkw" depart="25558.00" from="23283580#0" to="23286179#2"/>
	<trip id="161086_421_0" type="pkw" depart="25558.00" from="23286179#2" to="42925825#0"/>
	<trip id="126208_407_0" type="pkw" depart="25559.00" from="-42925825#2" to="297047309#0"/>
	<trip id="147697_416_0" type="pkw" depart="25559.00" from="186623965#9" to="42925825#0"/>
	<trip id="126688_407_0" type="pkw" depart="25563.00" from="-23283579#1" to="-23840972"/>
	<trip id="113945_402_0" type="pkw" depart="25563.00" from="-28675510#11" to="297047310#4"/>
	<trip id="116644_404_0" type="pkw" depart="25566.00" from="-186623965#18" to="297047309#0"/>
	<trip id="186152_432_0" type="pkw" depart="25567.00" from="28675510#1" to="28675510#7"/>
	<trip id="168666_425_0" type="pkw" depart="25568.00" from="22959550#0" to="28675510#7"/>
	<trip id="171283_426_0" type="pkw" depart="25571.00" from="23283580#0" to="28675510#7"/>
	<trip id="176781_429_0" type="pkw" depart="25573.00" from="186623965#17" to="42925825#0"/>
	<trip id="186808_432_0" type="pkw" depart="25573.00" from="23840713#2" to="28675510#7"/>
	<trip id="148143_417_0" type="pkw" depart="25574.00" from="-28675510#11" to="8716827#0"/>
	<trip id="183189_431_0" type="pkw" depart="25575.00" from="23283474" to="22959552#0"/>
	<trip id="160078_421_0" type="pkw" depart="25575.00" from="-4936412" to="8716827#0"/>
	<trip id="129126_408_0" type="pkw" depart="25576.00" from="-28675510#11" to="-186623965#14"/>
	<trip id="127322_407_0" type="pkw" depart="25577.00" from="-186623965#18" to="-28675510#5"/>
	<trip id="119014_405_0" type="pkw" depart="25580.00" from="132042183" to="-23283472#2"/>
	<trip id="163913_422_0" type="pkw" depart="25581.00" from="-4936412" to="8716827#0"/>
	<trip id="156093_420_0" type="pkw" depart="25584.00" from="23283579#1" to="23283579#1"/>
	<trip id="98770_395_0" type="pkw" depart="25585.00" from="-186623965#18" to="23840935"/>
	<trip id="161788_421_0" type="pkw" depart="25589.00" from="186623965#9" to="-186623965#14"/>
	<trip id="133534_410_0" type="pkw" depart="25592.00" from="160807420" to="8716827#0"/>
	<trip id="102131_396_0" type="pkw" depart="25592.00" from="-4936412" to="8716827#0"/>
	<trip id="145098_416_0" type="pkw" depart="25593.00" from="-297047309#0" to="28675510#7"/>
	<trip id="151627_419_0" type="pkw" depart="25594.00" from="186623965#9" to="186623965#17"/>
	<trip id="143015_415_0" type="pkw" depart="25595.00" from="-186623965#18" to="323450710#0"/>
	<trip id="147083_416_0" type="pkw" depart="25596.00" from="186623965#9" to="-22917421#4"/>
	<trip id="117318_404_0" type="pkw" depart="25597.00" from="-186623965#18" to="323450710#0"/>
	<trip id="151894_419_0" type="pkw" depart="25600.00" from="-23283579#1" to="25166682#0"/>
	<trip id="107138_400_0" type="pkw" depart="25603.00" from="-23283579#1" to="297047309#0"/>
	<trip id="173908_427_0" type="pkw" depart="25605.00" from="290365598#0" to="28675510#7"/>
	<trip id="144870_416_0" type="pkw" depart="25607.00" from="-186623965#18" to="42925825#0"/>
	<trip id="148075_417_0" type="pkw" depart="25608.00" from="-23283579#1" to="-24610382"/>
	<trip id="125134_406_0" type="pkw" depart="25610.00" from="-23283579#1" to="297047309#0"/>
	<trip id="120462_405_0" type="pkw" depart="25612.00" from="-23283579#1" to="297047309#0"/>
	<trip id="173839_427_0" type="pkw" depart="25612.00" from="186623965#17" to="186623965#17"/>
	<trip id="169806_426_0" type="pkw" depart="25612.00" from="22959552#1" to="186623965#17"/>
	<trip id="154166_420_0" type="pkw" depart="25614.00" from="160807420" to="23283436"/>
	<trip id="91778_392_0" type="pkw" depart="25615.00" from="-23283579#1" to="25166682#0"/>
	<trip id="182995_431_0" type="pkw" depart="25615.00" from="22959550#0" to="297047309#0"/>
	<trip id="125779_406_0" type="pkw" depart="25617.00" from="-186623965#18" to="-186623965#14"/>
	<trip id="150248_418_0" type="pkw" depart="25617.00" from="-23283579#1" to="297047309#0"/>
	<trip id="144670_416_0" type="pkw" depart="25619.00" from="-23283579#1" to="297047309#0"/>
	<trip id="113179_402_0" type="pkw" depart="25621.00" from="-23283579#1" to="297047309#0"/>
	<trip id="131459_410_0" type="pkw" depart="25624.00" from="-23283579#1" to="-23283580#1"/>
	<trip id="182476_431_0" type="pkw" depart="25624.00" from="-4936412" to="8716827#0"/>
	<trip id="73425_385_0" type="pkw" depart="25630.00" from="-4936412" to="22959552#0"/>
	<trip id="156917_421_0" type="pkw" depart="25632.00" from="-186623965#18" to="42925825#0"/>
	<trip id="137365_412_0" type="pkw" depart="25635.00" from="22917421#3" to="186623965#17"/>
	<trip id="127515_407_0" type="pkw" depart="25637.00" from="-23283579#1" to="-297047310#2"/>
	<trip id="110782_401_0" type="pkw" depart="25638.00" from="22917421#3" to="186623965#17"/>
	<trip id="165874_424_0" type="pkw" depart="25640.00" from="-186623965#18" to="323450710#0"/>
	<trip id="145872_416_0" type="pkw" depart="25640.00" from="-186623965#18" to="42925825#0"/>
	<trip id="97682_395_0" type="pkw" depart="25641.00" from="-4936412" to="8716827#0"/>
	<trip id="161554_421_0" type="pkw" depart="25641.00" from="-186623965#18" to="42925825#0"/>
	<trip id="158422_421_0" type="pkw" depart="25643.00" from="22917421#3" to="186623965#17"/>
	<trip id="159470_421_0" type="pkw" depart="25643.00" from="-22917421#14" to="186623965#17"/>
	<trip id="117311_404_0" type="pkw" depart="25646.00" from="-186623965#18" to="42925825#0"/>
	<trip id="121002_405_0" type="pkw" depart="25647.00" from="-186623965#18" to="8716807#1"/>
	<trip id="140157_414_0" type="pkw" depart="25647.00" from="-186623965#18" to="-186623965#14"/>
	<trip id="170300_426_0" type="pkw" depart="25647.00" from="23286179#2" to="28675510#7"/>
	<trip id="139953_414_0" type="pkw" depart="25648.00" from="-186623965#18" to="-186623965#14"/>
	<trip id="164109_422_0" type="pkw" depart="25649.00" from="-186623965#18" to="23840888#0"/>
	<trip id="165217_423_0" type="pkw" depart="25649.00" from="22959552#0" to="-186623965#14"/>
	<trip id="193602_435_0" type="pkw" depart="25653.00" from="23840713#2" to="-186623965#14"/>
	<trip id="139889_414_0" type="pkw" depart="25658.00" from="-186623965#18" to="23840972"/>
	<trip id="125864_406_0" type="pkw" depart="25659.00" from="22959552#0" to="22959552#0"/>
	<trip id="150569_418_0" type="pkw" depart="25660.00" from="-186623965#18" to="-186623965#14"/>
	<trip id="140331_414_0" type="pkw" depart="25661.00" from="-186623965#18" to="-186623965#14"/>
	<trip id="148809_417_0" type="pkw" depart="25665.00" from="-186623965#18" to="-186623965#14"/>
	<trip id="119256_405_0" type="pkw" depart="25669.00" from="-23283579#1" to="297047309#0"/>
	<trip id="145243_416_0" type="pkw" depart="25673.00" from="-23283579#1" to="23648008#0"/>
	<trip id="151321_418_0" type="pkw" depart="25673.00" from="-42925825#2" to="-186623965#14"/>
	<trip id="155327_420_0" type="pkw" depart="25677.00" from="-186623965#18" to="-186623965#14"/>
	<trip id="149988_417_0" type="pkw" depart="25679.00" from="-23283579#1" to="297047309#0"/>
	<trip id="192710_435_0" type="pkw" depart="25679.00" from="22959550#0" to="297047309#0"/>
	<trip id="158415_421_0" type="pkw" depart="25680.00" from="23647126" to="28675510#7"/>
	<trip id="123267_406_0" type="pkw" depart="25682.00" from="-23283579#1" to="-23840935"/>
	<trip id="183972_431_0" type="pkw" depart="25682.00" from="-186623965#18" to="42925825#0"/>
	<trip id="162038_421_0" type="pkw" depart="25683.00" from="-42925825#2" to="23283470#2"/>
	<trip id="114948_403_0" type="pkw" depart="25684.00" from="-23283579#1" to="23840713#0"/>
	<trip id="136450_411_0" type="pkw" depart="25684.00" from="-186623965#18" to="-186623965#14"/>
	<trip id="174472_427_0" type="pkw" depart="25684.00" from="23840888#1" to="-186623965#14"/>
	<trip id="143427_415_0" type="pkw" depart="25686.00" from="-23283579#1" to="28675510#4"/>
	<trip id="172235_426_0" type="pkw" depart="25686.00" from="-186623965#18" to="-186623965#14"/>
	<trip id="165008_423_0" type="pkw" depart="25687.00" from="-186623965#18" to="-186623965#14"/>
	<trip id="183166_431_0" type="pkw" depart="25687.00" from="22917421#3" to="-186623965#14"/>
	<trip id="115187_403_0" type="pkw" depart="25688.00" from="-23283579#1" to="8716827#0"/>
	<trip id="182100_431_0" type="pkw" depart="25688.00" from="23283474" to="22959552#0"/>
	<trip id="173169_427_0" type="pkw" depart="25688.00" from="22959550#3" to="-186623965#14"/>
	<trip id="177062_429_0" type="pkw" depart="25688.00" from="22959550#0" to="23283435#1"/>
	<trip id="188396_433_0" type="pkw" depart="25692.00" from="-28675510#0" to="28675510#7"/>
	<trip id="125269_406_0" type="pkw" depart="25693.00" from="-23283579#1" to="-297047309#0"/>
	<trip id="164258_422_0" type="pkw" depart="25695.00" from="-186623965#18" to="-186623965#14"/>
	<trip id="159525_421_0" type="pkw" depart="25703.00" from="-186623965#18" to="-186623965#14"/>
	<trip id="123164_406_0" type="pkw" depart="25705.00" from="-297047309#0" to="23648008#2"/>
	<trip id="175650_428_0" type="pkw" depart="25705.00" from="-186623965#18" to="-186623965#14"/>
	<trip id="144520_416_0" type="pkw" depart="25707.00" from="-186623965#18" to="-186623965#14"/>
	<trip id="177057_429_0" type="pkw" depart="25708.00" from="22959552#0" to="-186623965#14"/>
	<trip id="145851_416_0" type="pkw" depart="25708.00" from="-23283579#1" to="-186623965#14"/>
	<trip id="178143_430_0" type="pkw" depart="25708.00" from="-186623965#18" to="-186623965#14"/>
	<trip id="140650_414_0" type="pkw" depart="25713.00" from="-23283579#1" to="23840972"/>
	<trip id="113241_402_0" type="pkw" depart="25717.00" from="-23283579#1" to="-186623965#14"/>
	<trip id="132161_410_0" type="pkw" depart="25718.00" from="-25168493" to="25168493"/>
	<trip id="136774_411_0" type="pkw" depart="25719.00" from="-23283579#1" to="23283579#1"/>
	<trip id="146263_416_0" type="pkw" depart="25722.00" from="-23283579#1" to="23285888#0"/>
	<trip id="174305_427_0" type="pkw" depart="25723.00" from="-23648008#1" to="323450710#0"/>
	<trip id="128058_407_0" type="pkw" depart="25728.00" from="-186623965#18" to="-186623965#14"/>
	<trip id="172902_426_0" type="pkw" depart="25730.00" from="-186623965#18" to="-186623965#14"/>
	<trip id="172326_426_0" type="pkw" depart="25730.00" from="22959552#2" to="-186623965#14"/>
	<trip id="147964_416_0" type="pkw" depart="25733.00" from="-186623965#18" to="-186623965#14"/>
	<trip id="167598_425_0" type="pkw" depart="25737.00" from="-186623965#18" to="-186623965#14"/>
	<trip id="186004_432_0" type="pkw" depart="25741.00" from="-23283579#1" to="-186623965#14"/>
	<trip id="162377_421_0" type="pkw" depart="25742.00" from="-42925825#2" to="-186623965#14"/>
	<trip id="169617_426_0" type="pkw" depart="25744.00" from="-42925825#2" to="-186623965#14"/>
	<trip id="152668_419_0" type="pkw" depart="25744.00" from="160807420" to="23283436"/>
	<trip id="101612_396_0" type="pkw" depart="25744.00" from="-23283579#1" to="323450710#0"/>
	<trip id="172564_426_0" type="pkw" depart="25746.00" from="-42925825#2" to="-186623965#14"/>
	<trip id="183179_431_0" type="pkw" depart="25748.00" from="-42925825#2" to="-186623965#14"/>
	<trip id="129141_408_0" type="pkw" depart="25750.00" from="186623965#9" to="155600123#0"/>
	<trip id="181081_431_0" type="pkw" depart="25750.00" from="-42925825#2" to="-186623965#14"/>
	<trip id="175093_428_0" type="pkw" depart="25751.00" from="-186623965#18" to="-186623965#14"/>
	<trip id="164113_422_0" type="pkw" depart="25753.00" from="-42925825#2" to="-186623965#14"/>
	<trip id="149443_417_0" type="pkw" depart="25754.00" from="-23283579#1" to="297047309#0"/>
	<trip id="187770_433_0" type="pkw" depart="25755.00" from="28675510#1" to="-186623965#14"/>
	<trip id="120853_405_0" type="pkw" depart="25755.00" from="-42925825#2" to="-186623965#14"/>
	<trip id="181729_431_0" type="pkw" depart="25756.00" from="160807420" to="23283436"/>
	<trip id="172455_426_0" type="pkw" depart="25756.00" from="-186623965#18" to="42925825#0"/>
	<trip id="156099_420_0" type="pkw" depart="25757.00" from="-186623965#18" to="-186623965#14"/>
	<trip id="72330_384_0" type="pkw" depart="25757.00" from="-4936412" to="23283436"/>
	<trip id="162706_422_0" type="pkw" depart="25758.00" from="-186623965#18" to="8716827#0"/>
	<trip id="164918_423_0" type="pkw" depart="25759.00" from="-23283579#1" to="23840972"/>
	<trip id="119974_405_0" type="pkw" depart="25759.00" from="-186623965#18" to="-186623965#14"/>
	<trip id="167080_425_0" type="pkw" depart="25759.00" from="-42925825#2" to="-186623965#14"/>
	<trip id="176453_429_0" type="pkw" depart="25759.00" from="23840713#2" to="155723703#0"/>
	<trip id="139696_413_0" type="pkw" depart="25760.00" from="-186623965#18" to="-28675494#1"/>
	<trip id="148272_417_0" type="pkw" depart="25761.00" from="-42925825#2" to="-186623965#14"/>
	<trip id="142098_415_0" type="pkw" depart="25762.00" from="160807420" to="23283436"/>
	<trip id="163798_422_0" type="pkw" depart="25766.00" from="23286179#2" to="23286179#2"/>
	<trip id="183010_431_0" type="pkw" depart="25767.00" from="133081987#3" to="23283436"/>
	<trip id="186829_432_0" type="pkw" depart="25770.00" from="-186623965#18" to="-186623965#14"/>
	<trip id="169117_425_0" type="pkw" depart="25772.00" from="23283579#1" to="23283579#1"/>
	<trip id="181087_431_0" type="pkw" depart="25778.00" from="-186623965#18" to="-186623965#14"/>
	<trip id="136072_411_0" type="pkw" depart="25779.00" from="-186623965#18" to="-186623965#14"/>
	<trip id="153013_419_0" type="pkw" depart="25780.00" from="-23648008#0" to="23647126"/>
	<trip id="171650_426_0" type="pkw" depart="25781.00" from="-186623965#18" to="-186623965#14"/>
	<trip id="143990_416_0" type="pkw" depart="25782.00" from="-186623965#18" to="25166682#0"/>