<?xml version="1.0" encoding="UTF-8"?>

<!-- generated on Sun May 23 17:27:59 2021 by Eclipse SUMO duarouter Version 1.9.0
<configuration xmlns:xsi="http://www.w3.org/2001/XMLSchema-instance" xsi:noNamespaceSchemaLocation="http://sumo.dlr.de/xsd/duarouterConfiguration.xsd">

    <input>
        <net-file value="arterial4x4.net.xml"/>
        <route-files value="./trips/arterial4x4_1.trips.xml"/>
    </input>

    <output>
        <output-file value="./routes/arterial4x4_1.rou.xml"/>
        <alternatives-output value="./routes/arterial4x4_1.rou.alt.xml"/>
    </output>

</configuration>
-->

<routes xmlns:xsi="http://www.w3.org/2001/XMLSchema-instance" xsi:noNamespaceSchemaLocation="http://sumo.dlr.de/xsd/routes_file.xsd">
    <vType id="type1" length="5.00" accel="5" decel="10"/>
    <vehicle id="f_0_0.0" type="type1" depart="0.00" departPos="random_free">
        <route edges="np13_nt13 nt13_nt14 nt14_nt15 nt15_nt11 nt11_nt7 nt7_nt3 nt3_nt4 nt4_np5"/>
    </vehicle>
    <vehicle id="f_0_1.0" type="type1" depart="0.00" departPos="random_free">
        <route edges="np16_nt1 nt1_nt2 nt2_nt3 nt3_nt7 nt7_nt11 nt11_nt15 nt15_nt16 nt16_np8"/>
    </vehicle>
    <vehicle id="f_0_2.0" type="type1" depart="0.00" departPos="random_free">
        <route edges="np2_nt2 nt2_nt3 nt3_nt7 nt7_nt11 nt11_nt15 nt15_np10"/>
    </vehicle>
    <vehicle id="f_0_3.0" type="type1" depart="0.00" departPos="random_free">
        <route edges="np3_nt3 nt3_nt2 nt2_nt6 nt6_nt10 nt10_nt14 nt14_np11"/>
    </vehicle>
    <vehicle id="f_0_2.1" type="type1" depart="8.18" departPos="random_free">
        <route edges="np2_nt2 nt2_nt3 nt3_nt7 nt7_nt11 nt11_nt15 nt15_np10"/>
    </vehicle>
    <vehicle id="f_0_3.1" type="type1" depart="8.18" departPos="random_free">
        <route edges="np3_nt3 nt3_nt2 nt2_nt6 nt6_nt10 nt10_nt14 nt14_np11"/>
    </vehicle>
    <vehicle id="f_0_0.1" type="type1" depart="13.64" departPos="random_free">
        <route edges="np13_nt13 nt13_nt14 nt14_nt15 nt15_nt11 nt11_nt7 nt7_nt3 nt3_nt4 nt4_np5"/>
    </vehicle>
    <vehicle id="f_0_1.1" type="type1" depart="13.64" departPos="random_free">
        <route edges="np16_nt1 nt1_nt2 nt2_nt3 nt3_nt7 nt7_nt11 nt11_nt15 nt15_nt16 nt16_np8"/>
    </vehicle>
    <vehicle id="f_0_2.2" type="type1" depart="16.36" departPos="random_free">
        <route edges="np2_nt2 nt2_nt3 nt3_nt7 nt7_nt11 nt11_nt15 nt15_np10"/>
    </vehicle>
    <vehicle id="f_0_3.2" type="type1" depart="16.36" departPos="random_free">
        <route edges="np3_nt3 nt3_nt2 nt2_nt6 nt6_nt10 nt10_nt14 nt14_np11"/>
    </vehicle>
    <vehicle id="f_0_2.3" type="type1" depart="24.55" departPos="random_free">
        <route edges="np2_nt2 nt2_nt3 nt3_nt7 nt7_nt11 nt11_nt15 nt15_np10"/>
    </vehicle>
    <vehicle id="f_0_3.3" type="type1" depart="24.55" departPos="random_free">
        <route edges="np3_nt3 nt3_nt2 nt2_nt6 nt6_nt10 nt10_nt14 nt14_np11"/>
    </vehicle>
    <vehicle id="f_0_0.2" type="type1" depart="27.27" departPos="random_free">
        <route edges="np13_nt13 nt13_nt14 nt14_nt15 nt15_nt11 nt11_nt7 nt7_nt3 nt3_nt4 nt4_np5"/>
    </vehicle>
    <vehicle id="f_0_1.2" type="type1" depart="27.27" departPos="random_free">
        <route edges="np16_nt1 nt1_nt2 nt2_nt3 nt3_nt7 nt7_nt11 nt11_nt15 nt15_nt16 nt16_np8"/>
    </vehicle>
    <vehicle id="f_0_2.4" type="type1" depart="32.73" departPos="random_free">
        <route edges="np2_nt2 nt2_nt3 nt3_nt7 nt7_nt11 nt11_nt15 nt15_np10"/>
    </vehicle>
    <vehicle id="f_0_3.4" type="type1" depart="32.73" departPos="random_free">
        <route edges="np3_nt3 nt3_nt2 nt2_nt6 nt6_nt10 nt10_nt14 nt14_np11"/>
    </vehicle>
    <vehicle id="f_0_0.3" type="type1" depart="40.91" departPos="random_free">
        <route edges="np13_nt13 nt13_nt14 nt14_nt15 nt15_nt11 nt11_nt7 nt7_nt3 nt3_nt4 nt4_np5"/>
    </vehicle>
    <vehicle id="f_0_1.3" type="type1" depart="40.91" departPos="random_free">
        <route edges="np16_nt1 nt1_nt2 nt2_nt3 nt3_nt7 nt7_nt11 nt11_nt15 nt15_nt16 nt16_np8"/>
    </vehicle>
    <vehicle id="f_0_2.5" type="type1" depart="40.91" departPos="random_free">
        <route edges="np2_nt2 nt2_nt3 nt3_nt7 nt7_nt11 nt11_nt15 nt15_np10"/>
    </vehicle>
    <vehicle id="f_0_3.5" type="type1" depart="40.91" departPos="random_free">
        <route edges="np3_nt3 nt3_nt2 nt2_nt6 nt6_nt10 nt10_nt14 nt14_np11"/>
    </vehicle>
    <vehicle id="f_0_2.6" type="type1" depart="49.09" departPos="random_free">
        <route edges="np2_nt2 nt2_nt3 nt3_nt7 nt7_nt11 nt11_nt15 nt15_np10"/>
    </vehicle>
    <vehicle id="f_0_3.6" type="type1" depart="49.09" departPos="random_free">
        <route edges="np3_nt3 nt3_nt2 nt2_nt6 nt6_nt10 nt10_nt14 nt14_np11"/>
    </vehicle>
    <vehicle id="f_0_0.4" type="type1" depart="54.54" departPos="random_free">
        <route edges="np13_nt13 nt13_nt14 nt14_nt15 nt15_nt11 nt11_nt7 nt7_nt3 nt3_nt4 nt4_np5"/>
    </vehicle>
    <vehicle id="f_0_1.4" type="type1" depart="54.54" departPos="random_free">
        <route edges="np16_nt1 nt1_nt2 nt2_nt3 nt3_nt7 nt7_nt11 nt11_nt15 nt15_nt16 nt16_np8"/>
    </vehicle>
    <vehicle id="f_0_2.7" type="type1" depart="57.27" departPos="random_free">
        <route edges="np2_nt2 nt2_nt3 nt3_nt7 nt7_nt11 nt11_nt15 nt15_np10"/>
    </vehicle>
    <vehicle id="f_0_3.7" type="type1" depart="57.27" departPos="random_free">
        <route edges="np3_nt3 nt3_nt2 nt2_nt6 nt6_nt10 nt10_nt14 nt14_np11"/>
    </vehicle>
    <vehicle id="f_0_2.8" type="type1" depart="65.46" departPos="random_free">
        <route edges="np2_nt2 nt2_nt3 nt3_nt7 nt7_nt11 nt11_nt15 nt15_np10"/>
    </vehicle>
    <vehicle id="f_0_3.8" type="type1" depart="65.46" departPos="random_free">
        <route edges="np3_nt3 nt3_nt2 nt2_nt6 nt6_nt10 nt10_nt14 nt14_np11"/>
    </vehicle>
    <vehicle id="f_0_0.5" type="type1" depart="68.18" departPos="random_free">
        <route edges="np13_nt13 nt13_nt14 nt14_nt15 nt15_nt11 nt11_nt7 nt7_nt3 nt3_nt4 nt4_np5"/>
    </vehicle>
    <vehicle id="f_0_1.5" type="type1" depart="68.18" departPos="random_free">
        <route edges="np16_nt1 nt1_nt2 nt2_nt3 nt3_nt7 nt7_nt11 nt11_nt15 nt15_nt16 nt16_np8"/>
    </vehicle>
    <vehicle id="f_0_2.9" type="type1" depart="73.64" departPos="random_free">
        <route edges="np2_nt2 nt2_nt3 nt3_nt7 nt7_nt11 nt11_nt15 nt15_np10"/>
    </vehicle>
    <vehicle id="f_0_3.9" type="type1" depart="73.64" departPos="random_free">
        <route edges="np3_nt3 nt3_nt2 nt2_nt6 nt6_nt10 nt10_nt14 nt14_np11"/>
    </vehicle>
    <vehicle id="f_0_0.6" type="type1" depart="81.82" departPos="random_free">
        <route edges="np13_nt13 nt13_nt14 nt14_nt15 nt15_nt11 nt11_nt7 nt7_nt3 nt3_nt4 nt4_np5"/>
    </vehicle>
    <vehicle id="f_0_1.6" type="type1" depart="81.82" departPos="random_free">
        <route edges="np16_nt1 nt1_nt2 nt2_nt3 nt3_nt7 nt7_nt11 nt11_nt15 nt15_nt16 nt16_np8"/>
    </vehicle>
    <vehicle id="f_0_2.10" type="type1" depart="81.82" departPos="random_free">
        <route edges="np2_nt2 nt2_nt3 nt3_nt7 nt7_nt11 nt11_nt15 nt15_np10"/>
    </vehicle>
    <vehicle id="f_0_3.10" type="type1" depart="81.82" departPos="random_free">
        <route edges="np3_nt3 nt3_nt2 nt2_nt6 nt6_nt10 nt10_nt14 nt14_np11"/>
    </vehicle>
    <vehicle id="f_0_2.11" type="type1" depart="90.00" departPos="random_free">
        <route edges="np2_nt2 nt2_nt3 nt3_nt7 nt7_nt11 nt11_nt15 nt15_np10"/>
    </vehicle>
    <vehicle id="f_0_3.11" type="type1" depart="90.00" departPos="random_free">
        <route edges="np3_nt3 nt3_nt2 nt2_nt6 nt6_nt10 nt10_nt14 nt14_np11"/>
    </vehicle>
    <vehicle id="f_0_0.7" type="type1" depart="95.45" departPos="random_free">
        <route edges="np13_nt13 nt13_nt14 nt14_nt15 nt15_nt11 nt11_nt7 nt7_nt3 nt3_nt4 nt4_np5"/>
    </vehicle>
    <vehicle id="f_0_1.7" type="type1" depart="95.45" departPos="random_free">
        <route edges="np16_nt1 nt1_nt2 nt2_nt3 nt3_nt7 nt7_nt11 nt11_nt15 nt15_nt16 nt16_np8"/>
    </vehicle>
    <vehicle id="f_0_2.12" type="type1" depart="98.18" departPos="random_free">
        <route edges="np2_nt2 nt2_nt3 nt3_nt7 nt7_nt11 nt11_nt15 nt15_np10"/>
    </vehicle>
    <vehicle id="f_0_3.12" type="type1" depart="98.18" departPos="random_free">
        <route edges="np3_nt3 nt3_nt2 nt2_nt6 nt6_nt10 nt10_nt14 nt14_np11"/>
    </vehicle>
    <vehicle id="f_0_2.13" type="type1" depart="106.37" departPos="random_free">
        <route edges="np2_nt2 nt2_nt3 nt3_nt7 nt7_nt11 nt11_nt15 nt15_np10"/>
    </vehicle>
    <vehicle id="f_0_3.13" type="type1" depart="106.37" departPos="random_free">
        <route edges="np3_nt3 nt3_nt2 nt2_nt6 nt6_nt10 nt10_nt14 nt14_np11"/>
    </vehicle>
    <vehicle id="f_0_0.8" type="type1" depart="109.09" departPos="random_free">
        <route edges="np13_nt13 nt13_nt14 nt14_nt15 nt15_nt11 nt11_nt7 nt7_nt3 nt3_nt4 nt4_np5"/>
    </vehicle>
    <vehicle id="f_0_1.8" type="type1" depart="109.09" departPos="random_free">
        <route edges="np16_nt1 nt1_nt2 nt2_nt3 nt3_nt7 nt7_nt11 nt11_nt15 nt15_nt16 nt16_np8"/>
    </vehicle>
    <vehicle id="f_0_2.14" type="type1" depart="114.55" departPos="random_free">
        <route edges="np2_nt2 nt2_nt3 nt3_nt7 nt7_nt11 nt11_nt15 nt15_np10"/>
    </vehicle>
    <vehicle id="f_0_3.14" type="type1" depart="114.55" departPos="random_free">
        <route edges="np3_nt3 nt3_nt2 nt2_nt6 nt6_nt10 nt10_nt14 nt14_np11"/>
    </vehicle>
    <vehicle id="f_0_0.9" type="type1" depart="122.72" departPos="random_free">
        <route edges="np13_nt13 nt13_nt14 nt14_nt15 nt15_nt11 nt11_nt7 nt7_nt3 nt3_nt4 nt4_np5"/>
    </vehicle>
    <vehicle id="f_0_1.9" type="type1" depart="122.72" departPos="random_free">
        <route edges="np16_nt1 nt1_nt2 nt2_nt3 nt3_nt7 nt7_nt11 nt11_nt15 nt15_nt16 nt16_np8"/>
    </vehicle>
    <vehicle id="f_0_2.15" type="type1" depart="122.73" departPos="random_free">
        <route edges="np2_nt2 nt2_nt3 nt3_nt7 nt7_nt11 nt11_nt15 nt15_np10"/>
    </vehicle>
    <vehicle id="f_0_3.15" type="type1" depart="122.73" departPos="random_free">
        <route edges="np3_nt3 nt3_nt2 nt2_nt6 nt6_nt10 nt10_nt14 nt14_np11"/>
    </vehicle>
    <vehicle id="f_0_2.16" type="type1" depart="130.91" departPos="random_free">
        <route edges="np2_nt2 nt2_nt3 nt3_nt7 nt7_nt11 nt11_nt15 nt15_np10"/>
    </vehicle>
    <vehicle id="f_0_3.16" type="type1" depart="130.91" departPos="random_free">
        <route edges="np3_nt3 nt3_nt2 nt2_nt6 nt6_nt10 nt10_nt14 nt14_np11"/>
    </vehicle>
    <vehicle id="f_0_0.10" type="type1" depart="136.36" departPos="random_free">
        <route edges="np13_nt13 nt13_nt14 nt14_nt15 nt15_nt11 nt11_nt7 nt7_nt3 nt3_nt4 nt4_np5"/>
    </vehicle>
    <vehicle id="f_0_1.10" type="type1" depart="136.36" departPos="random_free">
        <route edges="np16_nt1 nt1_nt2 nt2_nt3 nt3_nt7 nt7_nt11 nt11_nt15 nt15_nt16 nt16_np8"/>
    </vehicle>
    <vehicle id="f_0_2.17" type="type1" depart="139.09" departPos="random_free">
        <route edges="np2_nt2 nt2_nt3 nt3_nt7 nt7_nt11 nt11_nt15 nt15_np10"/>
    </vehicle>
    <vehicle id="f_0_3.17" type="type1" depart="139.09" departPos="random_free">
        <route edges="np3_nt3 nt3_nt2 nt2_nt6 nt6_nt10 nt10_nt14 nt14_np11"/>
    </vehicle>
    <vehicle id="f_0_2.18" type="type1" depart="147.28" departPos="random_free">
        <route edges="np2_nt2 nt2_nt3 nt3_nt7 nt7_nt11 nt11_nt15 nt15_np10"/>
    </vehicle>
    <vehicle id="f_0_3.18" type="type1" depart="147.28" departPos="random_free">
        <route edges="np3_nt3 nt3_nt2 nt2_nt6 nt6_nt10 nt10_nt14 nt14_np11"/>
    </vehicle>
    <vehicle id="f_0_0.11" type="type1" depart="150.00" departPos="random_free">
        <route edges="np13_nt13 nt13_nt14 nt14_nt15 nt15_nt11 nt11_nt7 nt7_nt3 nt3_nt4 nt4_np5"/>
    </vehicle>
    <vehicle id="f_0_1.11" type="type1" depart="150.00" departPos="random_free">
        <route edges="np16_nt1 nt1_nt2 nt2_nt3 nt3_nt7 nt7_nt11 nt11_nt15 nt15_nt16 nt16_np8"/>
    </vehicle>
    <vehicle id="f_0_2.19" type="type1" depart="155.46" departPos="random_free">
        <route edges="np2_nt2 nt2_nt3 nt3_nt7 nt7_nt11 nt11_nt15 nt15_np10"/>
    </vehicle>
    <vehicle id="f_0_3.19" type="type1" depart="155.46" departPos="random_free">
        <route edges="np3_nt3 nt3_nt2 nt2_nt6 nt6_nt10 nt10_nt14 nt14_np11"/>
    </vehicle>
    <vehicle id="f_0_0.12" type="type1" depart="163.63" departPos="random_free">
        <route edges="np13_nt13 nt13_nt14 nt14_nt15 nt15_nt11 nt11_nt7 nt7_nt3 nt3_nt4 nt4_np5"/>
    </vehicle>
    <vehicle id="f_0_1.12" type="type1" depart="163.63" departPos="random_free">
        <route edges="np16_nt1 nt1_nt2 nt2_nt3 nt3_nt7 nt7_nt11 nt11_nt15 nt15_nt16 nt16_np8"/>
    </vehicle>
    <vehicle id="f_0_2.20" type="type1" depart="163.64" departPos="random_free">
        <route edges="np2_nt2 nt2_nt3 nt3_nt7 nt7_nt11 nt11_nt15 nt15_np10"/>
    </vehicle>
    <vehicle id="f_0_3.20" type="type1" depart="163.64" departPos="random_free">
        <route edges="np3_nt3 nt3_nt2 nt2_nt6 nt6_nt10 nt10_nt14 nt14_np11"/>
    </vehicle>
    <vehicle id="f_0_2.21" type="type1" depart="171.82" departPos="random_free">
        <route edges="np2_nt2 nt2_nt3 nt3_nt7 nt7_nt11 nt11_nt15 nt15_np10"/>
    </vehicle>
    <vehicle id="f_0_3.21" type="type1" depart="171.82" departPos="random_free">
        <route edges="np3_nt3 nt3_nt2 nt2_nt6 nt6_nt10 nt10_nt14 nt14_np11"/>
    </vehicle>
    <vehicle id="f_0_0.13" type="type1" depart="177.27" departPos="random_free">
        <route edges="np13_nt13 nt13_nt14 nt14_nt15 nt15_nt11 nt11_nt7 nt7_nt3 nt3_nt4 nt4_np5"/>
    </vehicle>
    <vehicle id="f_0_1.13" type="type1" depart="177.27" departPos="random_free">
        <route edges="np16_nt1 nt1_nt2 nt2_nt3 nt3_nt7 nt7_nt11 nt11_nt15 nt15_nt16 nt16_np8"/>
    </vehicle>
    <vehicle id="f_0_2.22" type="type1" depart="180.00" departPos="random_free">
        <route edges="np2_nt2 nt2_nt3 nt3_nt7 nt7_nt11 nt11_nt15 nt15_np10"/>
    </vehicle>
    <vehicle id="f_0_3.22" type="type1" depart="180.00" departPos="random_free">
        <route edges="np3_nt3 nt3_nt2 nt2_nt6 nt6_nt10 nt10_nt14 nt14_np11"/>
    </vehicle>
    <vehicle id="f_0_2.23" type="type1" depart="188.19" departPos="random_free">
        <route edges="np2_nt2 nt2_nt3 nt3_nt7 nt7_nt11 nt11_nt15 nt15_np10"/>
    </vehicle>
    <vehicle id="f_0_3.23" type="type1" depart="188.19" departPos="random_free">
        <route edges="np3_nt3 nt3_nt2 nt2_nt6 nt6_nt10 nt10_nt14 nt14_np11"/>
    </vehicle>
    <vehicle id="f_0_0.14" type="type1" depart="190.90" departPos="random_free">
        <route edges="np13_nt13 nt13_nt14 nt14_nt15 nt15_nt11 nt11_nt7 nt7_nt3 nt3_nt4 nt4_np5"/>
    </vehicle>
    <vehicle id="f_0_1.14" type="type1" depart="190.90" departPos="random_free">
        <route edges="np16_nt1 nt1_nt2 nt2_nt3 nt3_nt7 nt7_nt11 nt11_nt15 nt15_nt16 nt16_np8"/>
    </vehicle>
    <vehicle id="f_0_2.24" type="type1" depart="196.37" departPos="random_free">
        <route edges="np2_nt2 nt2_nt3 nt3_nt7 nt7_nt11 nt11_nt15 nt15_np10"/>
    </vehicle>
    <vehicle id="f_0_3.24" type="type1" depart="196.37" departPos="random_free">
        <route edges="np3_nt3 nt3_nt2 nt2_nt6 nt6_nt10 nt10_nt14 nt14_np11"/>
    </vehicle>
    <vehicle id="f_0_0.15" type="type1" depart="204.54" departPos="random_free">
        <route edges="np13_nt13 nt13_nt14 nt14_nt15 nt15_nt11 nt11_nt7 nt7_nt3 nt3_nt4 nt4_np5"/>
    </vehicle>
    <vehicle id="f_0_1.15" type="type1" depart="204.54" departPos="random_free">
        <route edges="np16_nt1 nt1_nt2 nt2_nt3 nt3_nt7 nt7_nt11 nt11_nt15 nt15_nt16 nt16_np8"/>
    </vehicle>
    <vehicle id="f_0_2.25" type="type1" depart="204.55" departPos="random_free">
        <route edges="np2_nt2 nt2_nt3 nt3_nt7 nt7_nt11 nt11_nt15 nt15_np10"/>
    </vehicle>
    <vehicle id="f_0_3.25" type="type1" depart="204.55" departPos="random_free">
        <route edges="np3_nt3 nt3_nt2 nt2_nt6 nt6_nt10 nt10_nt14 nt14_np11"/>
    </vehicle>
    <vehicle id="f_0_2.26" type="type1" depart="212.73" departPos="random_free">
        <route edges="np2_nt2 nt2_nt3 nt3_nt7 nt7_nt11 nt11_nt15 nt15_np10"/>
    </vehicle>
    <vehicle id="f_0_3.26" type="type1" depart="212.73" departPos="random_free">
        <route edges="np3_nt3 nt3_nt2 nt2_nt6 nt6_nt10 nt10_nt14 nt14_np11"/>
    </vehicle>
    <vehicle id="f_0_0.16" type="type1" depart="218.18" departPos="random_free">
        <route edges="np13_nt13 nt13_nt14 nt14_nt15 nt15_nt11 nt11_nt7 nt7_nt3 nt3_nt4 nt4_np5"/>
    </vehicle>
    <vehicle id="f_0_1.16" type="type1" depart="218.18" departPos="random_free">
        <route edges="np16_nt1 nt1_nt2 nt2_nt3 nt3_nt7 nt7_nt11 nt11_nt15 nt15_nt16 nt16_np8"/>
    </vehicle>
    <vehicle id="f_0_2.27" type="type1" depart="220.91" departPos="random_free">
        <route edges="np2_nt2 nt2_nt3 nt3_nt7 nt7_nt11 nt11_nt15 nt15_np10"/>
    </vehicle>
    <vehicle id="f_0_3.27" type="type1" depart="220.91" departPos="random_free">
        <route edges="np3_nt3 nt3_nt2 nt2_nt6 nt6_nt10 nt10_nt14 nt14_np11"/>
    </vehicle>
    <vehicle id="f_0_2.28" type="type1" depart="229.10" departPos="random_free">
        <route edges="np2_nt2 nt2_nt3 nt3_nt7 nt7_nt11 nt11_nt15 nt15_np10"/>
    </vehicle>
    <vehicle id="f_0_3.28" type="type1" depart="229.10" departPos="random_free">
        <route edges="np3_nt3 nt3_nt2 nt2_nt6 nt6_nt10 nt10_nt14 nt14_np11"/>
    </vehicle>
    <vehicle id="f_0_0.17" type="type1" depart="231.81" departPos="random_free">
        <route edges="np13_nt13 nt13_nt14 nt14_nt15 nt15_nt11 nt11_nt7 nt7_nt3 nt3_nt4 nt4_np5"/>
    </vehicle>
    <vehicle id="f_0_1.17" type="type1" depart="231.81" departPos="random_free">
        <route edges="np16_nt1 nt1_nt2 nt2_nt3 nt3_nt7 nt7_nt11 nt11_nt15 nt15_nt16 nt16_np8"/>
    </vehicle>
    <vehicle id="f_0_2.29" type="type1" depart="237.28" departPos="random_free">
        <route edges="np2_nt2 nt2_nt3 nt3_nt7 nt7_nt11 nt11_nt15 nt15_np10"/>
    </vehicle>
    <vehicle id="f_0_3.29" type="type1" depart="237.28" departPos="random_free">
        <route edges="np3_nt3 nt3_nt2 nt2_nt6 nt6_nt10 nt10_nt14 nt14_np11"/>
    </vehicle>
    <vehicle id="f_0_0.18" type="type1" depart="245.45" departPos="random_free">
        <route edges="np13_nt13 nt13_nt14 nt14_nt15 nt15_nt11 nt11_nt7 nt7_nt3 nt3_nt4 nt4_np5"/>
    </vehicle>
    <vehicle id="f_0_1.18" type="type1" depart="245.45" departPos="random_free">
        <route edges="np16_nt1 nt1_nt2 nt2_nt3 nt3_nt7 nt7_nt11 nt11_nt15 nt15_nt16 nt16_np8"/>
    </vehicle>
    <vehicle id="f_0_2.30" type="type1" depart="245.46" departPos="random_free">
        <route edges="np2_nt2 nt2_nt3 nt3_nt7 nt7_nt11 nt11_nt15 nt15_np10"/>
    </vehicle>
    <vehicle id="f_0_3.30" type="type1" depart="245.46" departPos="random_free">
        <route edges="np3_nt3 nt3_nt2 nt2_nt6 nt6_nt10 nt10_nt14 nt14_np11"/>
    </vehicle>
    <vehicle id="f_0_2.31" type="type1" depart="253.64" departPos="random_free">
        <route edges="np2_nt2 nt2_nt3 nt3_nt7 nt7_nt11 nt11_nt15 nt15_np10"/>
    </vehicle>
    <vehicle id="f_0_3.31" type="type1" depart="253.64" departPos="random_free">
        <route edges="np3_nt3 nt3_nt2 nt2_nt6 nt6_nt10 nt10_nt14 nt14_np11"/>
    </vehicle>
    <vehicle id="f_0_0.19" type="type1" depart="259.08" departPos="random_free">
        <route edges="np13_nt13 nt13_nt14 nt14_nt15 nt15_nt11 nt11_nt7 nt7_nt3 nt3_nt4 nt4_np5"/>
    </vehicle>
    <vehicle id="f_0_1.19" type="type1" depart="259.08" departPos="random_free">
        <route edges="np16_nt1 nt1_nt2 nt2_nt3 nt3_nt7 nt7_nt11 nt11_nt15 nt15_nt16 nt16_np8"/>
    </vehicle>
    <vehicle id="f_0_2.32" type="type1" depart="261.82" departPos="random_free">
        <route edges="np2_nt2 nt2_nt3 nt3_nt7 nt7_nt11 nt11_nt15 nt15_np10"/>
    </vehicle>
    <vehicle id="f_0_3.32" type="type1" depart="261.82" departPos="random_free">
        <route edges="np3_nt3 nt3_nt2 nt2_nt6 nt6_nt10 nt10_nt14 nt14_np11"/>
    </vehicle>
    <vehicle id="f_0_2.33" type="type1" depart="270.01" departPos="random_free">
        <route edges="np2_nt2 nt2_nt3 nt3_nt7 nt7_nt11 nt11_nt15 nt15_np10"/>
    </vehicle>
    <vehicle id="f_0_3.33" type="type1" depart="270.01" departPos="random_free">
        <route edges="np3_nt3 nt3_nt2 nt2_nt6 nt6_nt10 nt10_nt14 nt14_np11"/>
    </vehicle>
    <vehicle id="f_0_0.20" type="type1" depart="272.72" departPos="random_free">
        <route edges="np13_nt13 nt13_nt14 nt14_nt15 nt15_nt11 nt11_nt7 nt7_nt3 nt3_nt4 nt4_np5"/>
    </vehicle>
    <vehicle id="f_0_1.20" type="type1" depart="272.72" departPos="random_free">
        <route edges="np16_nt1 nt1_nt2 nt2_nt3 nt3_nt7 nt7_nt11 nt11_nt15 nt15_nt16 nt16_np8"/>
    </vehicle>
    <vehicle id="f_0_2.34" type="type1" depart="278.19" departPos="random_free">
        <route edges="np2_nt2 nt2_nt3 nt3_nt7 nt7_nt11 nt11_nt15 nt15_np10"/>
    </vehicle>
    <vehicle id="f_0_3.34" type="type1" depart="278.19" departPos="random_free">
        <route edges="np3_nt3 nt3_nt2 nt2_nt6 nt6_nt10 nt10_nt14 nt14_np11"/>
    </vehicle>
    <vehicle id="f_0_0.21" type="type1" depart="286.36" departPos="random_free">
        <route edges="np13_nt13 nt13_nt14 nt14_nt15 nt15_nt11 nt11_nt7 nt7_nt3 nt3_nt4 nt4_np5"/>
    </vehicle>
    <vehicle id="f_0_1.21" type="type1" depart="286.36" departPos="random_free">
        <route edges="np16_nt1 nt1_nt2 nt2_nt3 nt3_nt7 nt7_nt11 nt11_nt15 nt15_nt16 nt16_np8"/>
    </vehicle>
    <vehicle id="f_0_2.35" type="type1" depart="286.37" departPos="random_free">
        <route edges="np2_nt2 nt2_nt3 nt3_nt7 nt7_nt11 nt11_nt15 nt15_np10"/>
    </vehicle>
    <vehicle id="f_0_3.35" type="type1" depart="286.37" departPos="random_free">
        <route edges="np3_nt3 nt3_nt2 nt2_nt6 nt6_nt10 nt10_nt14 nt14_np11"/>
    </vehicle>
    <vehicle id="f_0_2.36" type="type1" depart="294.55" departPos="random_free">
        <route edges="np2_nt2 nt2_nt3 nt3_nt7 nt7_nt11 nt11_nt15 nt15_np10"/>
    </vehicle>
    <vehicle id="f_0_3.36" type="type1" depart="294.55" departPos="random_free">
        <route edges="np3_nt3 nt3_nt2 nt2_nt6 nt6_nt10 nt10_nt14 nt14_np11"/>
    </vehicle>
    <vehicle id="f_0_0.22" type="type1" depart="299.99" departPos="random_free">
        <route edges="np13_nt13 nt13_nt14 nt14_nt15 nt15_nt11 nt11_nt7 nt7_nt3 nt3_nt4 nt4_np5"/>
    </vehicle>
    <vehicle id="f_0_1.22" type="type1" depart="299.99" departPos="random_free">
        <route edges="np16_nt1 nt1_nt2 nt2_nt3 nt3_nt7 nt7_nt11 nt11_nt15 nt15_nt16 nt16_np8"/>
    </vehicle>
    <vehicle id="f_1_0.0" type="type1" depart="300.00" departPos="random_free">
        <route edges="np13_nt13 nt13_nt14 nt14_nt15 nt15_nt11 nt11_nt7 nt7_nt3 nt3_nt4 nt4_np5"/>
    </vehicle>
    <vehicle id="f_1_1.0" type="type1" depart="300.00" departPos="random_free">
        <route edges="np16_nt1 nt1_nt2 nt2_nt3 nt3_nt7 nt7_nt11 nt11_nt15 nt15_nt16 nt16_np8"/>
    </vehicle>
    <vehicle id="f_1_2.0" type="type1" depart="300.00" departPos="random_free">
        <route edges="np2_nt2 nt2_nt3 nt3_nt7 nt7_nt11 nt11_nt15 nt15_np10"/>
    </vehicle>
    <vehicle id="f_1_3.0" type="type1" depart="300.00" departPos="random_free">
        <route edges="np3_nt3 nt3_nt2 nt2_nt6 nt6_nt10 nt10_nt14 nt14_np11"/>
    </vehicle>
    <vehicle id="f_1_2.1" type="type1" depart="304.68" departPos="random_free">
        <route edges="np2_nt2 nt2_nt3 nt3_nt7 nt7_nt11 nt11_nt15 nt15_np10"/>
    </vehicle>
    <vehicle id="f_1_3.1" type="type1" depart="304.68" departPos="random_free">
        <route edges="np3_nt3 nt3_nt2 nt2_nt6 nt6_nt10 nt10_nt14 nt14_np11"/>
    </vehicle>
    <vehicle id="f_1_0.1" type="type1" depart="307.81" departPos="random_free">
        <route edges="np13_nt13 nt13_nt14 nt14_nt15 nt15_nt11 nt11_nt7 nt7_nt3 nt3_nt4 nt4_np5"/>
    </vehicle>
    <vehicle id="f_1_1.1" type="type1" depart="307.81" departPos="random_free">
        <route edges="np16_nt1 nt1_nt2 nt2_nt3 nt3_nt7 nt7_nt11 nt11_nt15 nt15_nt16 nt16_np8"/>
    </vehicle>
    <vehicle id="f_1_2.2" type="type1" depart="309.35" departPos="random_free">
        <route edges="np2_nt2 nt2_nt3 nt3_nt7 nt7_nt11 nt11_nt15 nt15_np10"/>
    </vehicle>
    <vehicle id="f_1_3.2" type="type1" depart="309.35" departPos="random_free">
        <route edges="np3_nt3 nt3_nt2 nt2_nt6 nt6_nt10 nt10_nt14 nt14_np11"/>
    </vehicle>
    <vehicle id="f_1_2.3" type="type1" depart="314.03" departPos="random_free">
        <route edges="np2_nt2 nt2_nt3 nt3_nt7 nt7_nt11 nt11_nt15 nt15_np10"/>
    </vehicle>
    <vehicle id="f_1_3.3" type="type1" depart="314.03" departPos="random_free">
        <route edges="np3_nt3 nt3_nt2 nt2_nt6 nt6_nt10 nt10_nt14 nt14_np11"/>
    </vehicle>
    <vehicle id="f_1_0.2" type="type1" depart="315.62" departPos="random_free">
        <route edges="np13_nt13 nt13_nt14 nt14_nt15 nt15_nt11 nt11_nt7 nt7_nt3 nt3_nt4 nt4_np5"/>
    </vehicle>
    <vehicle id="f_1_1.2" type="type1" depart="315.62" departPos="random_free">
        <route edges="np16_nt1 nt1_nt2 nt2_nt3 nt3_nt7 nt7_nt11 nt11_nt15 nt15_nt16 nt16_np8"/>
    </vehicle>
    <vehicle id="f_1_2.4" type="type1" depart="318.70" departPos="random_free">
        <route edges="np2_nt2 nt2_nt3 nt3_nt7 nt7_nt11 nt11_nt15 nt15_np10"/>
    </vehicle>
    <vehicle id="f_1_3.4" type="type1" depart="318.70" departPos="random_free">
        <route edges="np3_nt3 nt3_nt2 nt2_nt6 nt6_nt10 nt10_nt14 nt14_np11"/>
    </vehicle>
    <vehicle id="f_1_2.5" type="type1" depart="323.38" departPos="random_free">
        <route edges="np2_nt2 nt2_nt3 nt3_nt7 nt7_nt11 nt11_nt15 nt15_np10"/>
    </vehicle>
    <vehicle id="f_1_3.5" type="type1" depart="323.38" departPos="random_free">
        <route edges="np3_nt3 nt3_nt2 nt2_nt6 nt6_nt10 nt10_nt14 nt14_np11"/>
    </vehicle>
    <vehicle id="f_1_0.3" type="type1" depart="323.43" departPos="random_free">
        <route edges="np13_nt13 nt13_nt14 nt14_nt15 nt15_nt11 nt11_nt7 nt7_nt3 nt3_nt4 nt4_np5"/>
    </vehicle>
    <vehicle id="f_1_1.3" type="type1" depart="323.43" departPos="random_free">
        <route edges="np16_nt1 nt1_nt2 nt2_nt3 nt3_nt7 nt7_nt11 nt11_nt15 nt15_nt16 nt16_np8"/>
    </vehicle>
    <vehicle id="f_1_2.6" type="type1" depart="328.05" departPos="random_free">
        <route edges="np2_nt2 nt2_nt3 nt3_nt7 nt7_nt11 nt11_nt15 nt15_np10"/>
    </vehicle>
    <vehicle id="f_1_3.6" type="type1" depart="328.05" departPos="random_free">
        <route edges="np3_nt3 nt3_nt2 nt2_nt6 nt6_nt10 nt10_nt14 nt14_np11"/>
    </vehicle>
    <vehicle id="f_1_0.4" type="type1" depart="331.24" departPos="random_free">
        <route edges="np13_nt13 nt13_nt14 nt14_nt15 nt15_nt11 nt11_nt7 nt7_nt3 nt3_nt4 nt4_np5"/>
    </vehicle>
    <vehicle id="f_1_1.4" type="type1" depart="331.24" departPos="random_free">
        <route edges="np16_nt1 nt1_nt2 nt2_nt3 nt3_nt7 nt7_nt11 nt11_nt15 nt15_nt16 nt16_np8"/>
    </vehicle>
    <vehicle id="f_1_2.7" type="type1" depart="332.73" departPos="random_free">
        <route edges="np2_nt2 nt2_nt3 nt3_nt7 nt7_nt11 nt11_nt15 nt15_np10"/>
    </vehicle>
    <vehicle id="f_1_3.7" type="type1" depart="332.73" departPos="random_free">
        <route edges="np3_nt3 nt3_nt2 nt2_nt6 nt6_nt10 nt10_nt14 nt14_np11"/>
    </vehicle>
    <vehicle id="f_1_2.8" type="type1" depart="337.40" departPos="random_free">
        <route edges="np2_nt2 nt2_nt3 nt3_nt7 nt7_nt11 nt11_nt15 nt15_np10"/>
    </vehicle>
    <vehicle id="f_1_3.8" type="type1" depart="337.40" departPos="random_free">
        <route edges="np3_nt3 nt3_nt2 nt2_nt6 nt6_nt10 nt10_nt14 nt14_np11"/>
    </vehicle>
    <vehicle id="f_1_0.5" type="type1" depart="339.05" departPos="random_free">
        <route edges="np13_nt13 nt13_nt14 nt14_nt15 nt15_nt11 nt11_nt7 nt7_nt3 nt3_nt4 nt4_np5"/>
    </vehicle>
    <vehicle id="f_1_1.5" type="type1" depart="339.05" departPos="random_free">
        <route edges="np16_nt1 nt1_nt2 nt2_nt3 nt3_nt7 nt7_nt11 nt11_nt15 nt15_nt16 nt16_np8"/>
    </vehicle>
    <vehicle id="f_1_2.9" type="type1" depart="342.08" departPos="random_free">
        <route edges="np2_nt2 nt2_nt3 nt3_nt7 nt7_nt11 nt11_nt15 nt15_np10"/>
    </vehicle>
    <vehicle id="f_1_3.9" type="type1" depart="342.08" departPos="random_free">
        <route edges="np3_nt3 nt3_nt2 nt2_nt6 nt6_nt10 nt10_nt14 nt14_np11"/>
    </vehicle>
    <vehicle id="f_1_2.10" type="type1" depart="346.75" departPos="random_free">
        <route edges="np2_nt2 nt2_nt3 nt3_nt7 nt7_nt11 nt11_nt15 nt15_np10"/>
    </vehicle>
    <vehicle id="f_1_3.10" type="type1" depart="346.75" departPos="random_free">
        <route edges="np3_nt3 nt3_nt2 nt2_nt6 nt6_nt10 nt10_nt14 nt14_np11"/>
    </vehicle>
    <vehicle id="f_1_0.6" type="type1" depart="346.85" departPos="random_free">
        <route edges="np13_nt13 nt13_nt14 nt14_nt15 nt15_nt11 nt11_nt7 nt7_nt3 nt3_nt4 nt4_np5"/>
    </vehicle>
    <vehicle id="f_1_1.6" type="type1" depart="346.85" departPos="random_free">
        <route edges="np16_nt1 nt1_nt2 nt2_nt3 nt3_nt7 nt7_nt11 nt11_nt15 nt15_nt16 nt16_np8"/>
    </vehicle>
    <vehicle id="f_1_2.11" type="type1" depart="351.43" departPos="random_free">
        <route edges="np2_nt2 nt2_nt3 nt3_nt7 nt7_nt11 nt11_nt15 nt15_np10"/>
    </vehicle>
    <vehicle id="f_1_3.11" type="type1" depart="351.43" departPos="random_free">
        <route edges="np3_nt3 nt3_nt2 nt2_nt6 nt6_nt10 nt10_nt14 nt14_np11"/>
    </vehicle>
    <vehicle id="f_1_0.7" type="type1" depart="354.66" departPos="random_free">
        <route edges="np13_nt13 nt13_nt14 nt14_nt15 nt15_nt11 nt11_nt7 nt7_nt3 nt3_nt4 nt4_np5"/>
    </vehicle>