<?xml version="1.0" encoding="UTF-8"?>

<!-- generated on Sun May 23 17:01:28 2021 by Eclipse SUMO duarouter Version 1.9.0
<configuration xmlns:xsi="http://www.w3.org/2001/XMLSchema-instance" xsi:noNamespaceSchemaLocation="http://sumo.dlr.de/xsd/duarouterConfiguration.xsd">

    <input>
        <net-file value="grid4x4.net.xml"/>
        <route-files value="./trips/grid4x4_1.trips.xml"/>
    </input>

    <output>
        <output-file value="./routes/grid4x4_1.rou.xml"/>
        <alternatives-output value="./routes/grid4x4_1.rou.alt.xml"/>
    </output>

</configuration>
-->

<routes xmlns:xsi="http://www.w3.org/2001/XMLSchema-instance" xsi:noNamespaceSchemaLocation="http://sumo.dlr.de/xsd/routes_file.xsd">
    <vehicle id="0" depart="0.00">
        <route edges="top3D3 D3D2 D2C2 C2C3 C3D3 D3top3"/>
    </vehicle>
    <vehicle id="1" depart="9.00">
        <route edges="left0A0 A0A1 A1A2 A2A3 A3top0"/>
    </vehicle>
    <vehicle id="2" depart="14.00">
        <route edges="left0A0 A0B0 B0bottom1"/>
    </vehicle>
    <vehicle id="3" depart="27.00">
        <route edges="right3D3 D3C3 C3B3 B3A3 A3A2 A2A1 A1A0 A0bottom0"/>
    </vehicle>
    <vehicle id="4" depart="34.00">
        <route edges="left2A2 A2B2 B2B1 B1A1 A1A2 A2left2"/>
    </vehicle>
    <vehicle id="5" depart="36.00">
        <route edges="bottom1B0 B0B1 B1B2 B2B3 B3top1"/>
    </vehicle>
    <vehicle id="6" depart="38.00">
        <route edges="bottom1B0 B0A0 A0left0"/>
    </vehicle>
    <vehicle id="7" depart="53.00">
        <route edges="top1B3 B3C3 C3D3 D3top3"/>
    </vehicle>
    <vehicle id="8" depart="57.00">
        <route edges="top2C3 C3D3 D3top3"/>
    </vehicle>
    <vehicle id="9" depart="61.00">
        <route edges="top1B3 B3B2 B2B1 B1B0 B0C0 C0D0 D0right0"/>
    </vehicle>
    <vehicle id="10" depart="62.00">
        <route edges="bottom2C0 C0C1 C1C2 C2D2 D2right2"/>
    </vehicle>
    <vehicle id="11" depart="70.00">
        <route edges="left1A1 A1B1 B1B0 B0A0 A0A1 A1left1"/>
    </vehicle>
    <vehicle id="12" depart="74.00">
        <route edges="top3D3 D3D2 D2D1 D1D0 D0right0"/>
    </vehicle>
    <vehicle id="13" depart="76.00">
        <route edges="right1D1 D1D2 D2D3 D3top3"/>
    </vehicle>
    <vehicle id="14" depart="77.00">
        <route edges="right0D0 D0D1 D1D2 D2right2"/>
    </vehicle>
    <vehicle id="15" depart="79.00">
        <route edges="left0A0 A0B0 B0C0 C0D0 D0right0"/>
    </vehicle>
    <vehicle id="16" depart="84.00">
        <route edges="left2A2 A2B2 B2B3 B3top1"/>
    </vehicle>
    <vehicle id="17" depart="85.00">
        <route edges="bottom2C0 C0C1 C1C2 C2C3 C3D3 D3right3"/>
    </vehicle>
    <vehicle id="18" depart="87.00">
        <route edges="left0A0 A0B0 B0B1 B1B2 B2B3 B3C3 C3D3 D3right3"/>
    </vehicle>
    <vehicle id="19" depart="90.00">
        <route edges="right2D2 D2C2 C2C1 C1C0 C0bottom2"/>
    </vehicle>
    <vehicle id="20" depart="98.00">
        <route edges="bottom2C0 C0C1 C1C2 C2D2 D2right2"/>
    </vehicle>
    <vehicle id="21" depart="101.00">
        <route edges="top0A3 A3A2 A2B2 B2C2 C2C1 C1C0 C0bottom2"/>
    </vehicle>
    <vehicle id="22" depart="104.00">
        <route edges="top1B3 B3C3 C3D3 D3top3"/>
    </vehicle>
    <vehicle id="23" depart="106.00">
        <route edges="bottom2C0 C0C1 C1D1 D1right1"/>
    </vehicle>
    <vehicle id="24" depart="110.00">
        <route edges="bottom2C0 C0B0 B0bottom1"/>
    </vehicle>
    <vehicle id="25" depart="111.00">
        <route edges="right3D3 D3top3"/>
    </vehicle>
    <vehicle id="26" depart="111.00">
        <route edges="bottom0A0 A0B0 B0B1 B1B2 B2B3 B3top1"/>
    </vehicle>
    <vehicle id="27" depart="114.00">
        <route edges="bottom1B0 B0B1 B1B2 B2B3 B3A3 A3left3"/>
    </vehicle>
    <vehicle id="28" depart="117.00">
        <route edges="top0A3 A3A2 A2B2 B2B1 B1B0 B0bottom1"/>
    </vehicle>
    <vehicle id="29" depart="118.00">
        <route edges="right2D2 D2D3 D3C3 C3B3 B3A3 A3left3"/>
    </vehicle>
    <vehicle id="30" depart="137.00">
        <route edges="top0A3 A3A2 A2B2 B2C2 C2C1 C1C0 C0bottom2"/>
    </vehicle>
    <vehicle id="31" depart="138.00">
        <route edges="left3A3 A3B3 B3top1"/>
    </vehicle>
    <vehicle id="32" depart="139.00">
        <route edges="top2C3 C3D3 D3right3"/>
    </vehicle>
    <vehicle id="33" depart="139.00">
        <route edges="left1A1 A1B1 B1C1 C1D1 D1right1"/>
    </vehicle>
    <vehicle id="34" depart="143.00">
        <route edges="left1A1 A1B1 B1C1 C1D1 D1D2 D2D3 D3top3"/>
    </vehicle>
    <vehicle id="35" depart="146.00">
        <route edges="top0A3 A3A2 A2A1 A1A0 A0left0"/>
    </vehicle>
    <vehicle id="36" depart="154.00">
        <route edges="left2A2 A2B2 B2C2 C2D2 D2D3 D3top3"/>
    </vehicle>
    <vehicle id="37" depart="155.00">
        <route edges="right3D3 D3C3 C3C2 C2C1 C1C0 C0B0 B0A0 A0left0"/>
    </vehicle>
    <vehicle id="38" depart="169.00">
        <route edges="top3D3 D3C3 C3B3 B3A3 A3left3"/>
    </vehicle>
    <vehicle id="39" depart="173.00">
        <route edges="top1B3 B3B2 B2B1 B1B0 B0A0 A0left0"/>
    </vehicle>
    <vehicle id="40" depart="175.00">
        <route edges="right0D0 D0C0 C0B0 B0bottom1"/>
    </vehicle>
    <vehicle id="41" depart="176.00">
        <route edges="right1D1 D1C1 C1B1 B1A1 A1A2 A2A3 A3left3"/>
    </vehicle>
    <vehicle id="42" depart="178.00">
        <route edges="left0A0 A0B0 B0C0 C0D0 D0bottom3"/>
    </vehicle>
    <vehicle id="43" depart="186.00">
        <route edges="top0A3 A3left3"/>
    </vehicle>
    <vehicle id="44" depart="197.00">
        <route edges="left1A1 A1A2 A2left2"/>
    </vehicle>
    <vehicle id="45" depart="204.00">
        <route edges="bottom1B0 B0B1 B1C1 C1C0 C0B0 B0bottom1"/>
    </vehicle>
    <vehicle id="46" depart="211.00">
        <route edges="bottom1B0 B0C0 C0C1 C1C2 C2C3 C3top2"/>
    </vehicle>
    <vehicle id="47" depart="212.00">
        <route edges="right3D3 D3C3 C3B3 B3B2 B2B1 B1B0 B0bottom1"/>
    </vehicle>
    <vehicle id="48" depart="218.00">
        <route edges="top2C3 C3C2 C2D2 D2D1 D1D0 D0bottom3"/>
    </vehicle>
    <vehicle id="49" depart="220.00">
        <route edges="top1B3 B3A3 A3left3"/>
    </vehicle>
    <vehicle id="50" depart="222.00">
        <route edges="top2C3 C3C2 C2B2 B2B3 B3C3 C3top2"/>
    </vehicle>
    <vehicle id="51" depart="228.00">
        <route edges="top0A3 A3A2 A2A1 A1left1"/>
    </vehicle>
    <vehicle id="52" depart="229.00">
        <route edges="right1D1 D1C1 C1C0 C0bottom2"/>
    </vehicle>
    <vehicle id="53" depart="231.00">
        <route edges="top1B3 B3B2 B2C2 C2C1 C1C0 C0bottom2"/>
    </vehicle>
    <vehicle id="54" depart="236.00">
        <route edges="bottom0A0 A0B0 B0bottom1"/>
    </vehicle>
    <vehicle id="55" depart="257.00">
        <route edges="left3A3 A3B3 B3C3 C3top2"/>
    </vehicle>
    <vehicle id="56" depart="259.00">
        <route edges="left0A0 A0A1 A1A2 A2A3 A3left3"/>
    </vehicle>
    <vehicle id="57" depart="268.00">
        <route edges="bottom3D0 D0C0 C0bottom2"/>
    </vehicle>
    <vehicle id="58" depart="275.00">
        <route edges="bottom3D0 D0C0 C0B0 B0bottom1"/>
    </vehicle>
    <vehicle id="59" depart="276.00">
        <route edges="top2C3 C3D3 D3right3"/>
    </vehicle>
    <vehicle id="60" depart="278.00">
        <route edges="right3D3 D3C3 C3top2"/>
    </vehicle>
    <vehicle id="61" depart="279.00">
        <route edges="top3D3 D3C3 C3B3 B3A3 A3left3"/>
    </vehicle>
    <vehicle id="62" depart="283.00">
        <route edges="right3D3 D3D2 D2D1 D1right1"/>
    </vehicle>
    <vehicle id="63" depart="285.00">
        <route edges="right3D3 D3D2 D2D1 D1D0 D0right0"/>
    </vehicle>
    <vehicle id="64" depart="286.00">
        <route edges="left0A0 A0A1 A1A2 A2left2"/>
    </vehicle>
    <vehicle id="65" depart="294.00">
        <route edges="left2A2 A2B2 B2C2 C2C1 C1C0 C0bottom2"/>
    </vehicle>
    <vehicle id="66" depart="297.00">
        <route edges="bottom0A0 A0A1 A1left1"/>
    </vehicle>
    <vehicle id="67" depart="302.00">
        <route edges="top3D3 D3C3 C3B3 B3A3 A3left3"/>
    </vehicle>
    <vehicle id="68" depart="307.00">
        <route edges="bottom2C0 C0D0 D0bottom3"/>
    </vehicle>
    <vehicle id="69" depart="310.00">
        <route edges="right1D1 D1C1 C1B1 B1A1 A1A0 A0bottom0"/>
    </vehicle>
    <vehicle id="70" depart="320.00">
        <route edges="right1D1 D1C1 C1B1 B1B2 B2B3 B3top1"/>
    </vehicle>
    <vehicle id="71" depart="324.00">
        <route edges="bottom0A0 A0A1 A1left1"/>
    </vehicle>
    <vehicle id="72" depart="327.00">
        <route edges="left2A2 A2B2 B2C2 C2D2 D2D3 D3top3"/>
    </vehicle>
    <vehicle id="73" depart="329.00">
        <route edges="bottom3D0 D0C0 C0C1 C1D1 D1D0 D0bottom3"/>
    </vehicle>
    <vehicle id="74" depart="330.00">
        <route edges="top0A3 A3B3 B3C3 C3D3 D3right3"/>
    </vehicle>
    <vehicle id="75" depart="349.00">
        <route edges="top0A3 A3A2 A2A1 A1A0 A0left0"/>
    </vehicle>
    <vehicle id="76" depart="359.00">
        <route edges="bottom0A0 A0A1 A1B1 B1C1 C1D1 D1right1"/>
    </vehicle>
    <vehicle id="77" depart="377.00">
        <route edges="right0D0 D0D1 D1D2 D2D3 D3top3"/>
    </vehicle>
    <vehicle id="78" depart="379.00">
        <route edges="left0A0 A0A1 A1A2 A2left2"/>
    </vehicle>
    <vehicle id="79" depart="380.00">
        <route edges="right0D0 D0D1 D1C1 C1B1 B1A1 A1left1"/>
    </vehicle>
    <vehicle id="80" depart="388.00">
        <route edges="top1B3 B3C3 C3top2"/>
    </vehicle>
    <vehicle id="81" depart="391.00">
        <route edges="right0D0 D0C0 C0B0 B0bottom1"/>
    </vehicle>
    <vehicle id="82" depart="397.00">
        <route edges="top0A3 A3A2 A2A1 A1B1 B1C1 C1D1 D1right1"/>
    </vehicle>
    <vehicle id="83" depart="400.00">
        <route edges="top0A3 A3A2 A2B2 B2C2 C2D2 D2right2"/>
    </vehicle>
    <vehicle id="84" depart="402.00">
        <route edges="bottom3D0 D0D1 D1D2 D2D3 D3top3"/>
    </vehicle>
    <vehicle id="85" depart="406.00">
        <route edges="left3A3 A3A2 A2A1 A1A0 A0bottom0"/>
    </vehicle>
    <vehicle id="86" depart="407.00">
        <route edges="right1D1 D1C1 C1C2 C2D2 D2D1 D1right1"/>
    </vehicle>
    <vehicle id="87" depart="408.00">
        <route edges="bottom1B0 B0C0 C0bottom2"/>
    </vehicle>
    <vehicle id="88" depart="409.00">
        <route edges="left0A0 A0A1 A1A2 A2A3 A3top0"/>
    </vehicle>
    <vehicle id="89" depart="419.00">
        <route edges="left3A3 A3A2 A2A1 A1left1"/>
    </vehicle>
    <vehicle id="90" depart="421.00">
        <route edges="left3A3 A3B3 B3top1"/>
    </vehicle>
    <vehicle id="91" depart="423.00">
        <route edges="right0D0 D0D1 D1D2 D2D3 D3top3"/>
    </vehicle>
    <vehicle id="92" depart="426.00">
        <route edges="left1A1 A1A0 A0bottom0"/>
    </vehicle>
    <vehicle id="93" depart="428.00">
        <route edges="left0A0 A0B0 B0B1 B1C1 C1D1 D1right1"/>
    </vehicle>
    <vehicle id="94" depart="430.00">
        <route edges="right0D0 D0D1 D1right1"/>
    </vehicle>
    <vehicle id="95" depart="431.00">
        <route edges="bottom1B0 B0B1 B1B2 B2B3 B3C3 C3D3 D3right3"/>
    </vehicle>
    <vehicle id="96" depart="436.00">
        <route edges="left1A1 A1B1 B1B2 B2C2 C2D2 D2right2"/>
    </vehicle>
    <vehicle id="97" depart="442.00">
        <route edges="top1B3 B3A3 A3left3"/>
    </vehicle>
    <vehicle id="98" depart="442.00">
        <route edges="bottom3D0 D0C0 C0B0 B0bottom1"/>
    </vehicle>
    <vehicle id="99" depart="443.00">
        <route edges="top1B3 B3B2 B2B1 B1B0 B0A0 A0left0"/>
    </vehicle>
    <vehicle id="100" depart="452.00">
        <route edges="top3D3 D3right3"/>
    </vehicle>
    <vehicle id="101" depart="453.00">
        <route edges="top3D3 D3D2 D2D1 D1D0 D0right0"/>
    </vehicle>
    <vehicle id="102" depart="465.00">
        <route edges="right0D0 D0C0 C0B0 B0A0 A0bottom0"/>
    </vehicle>
    <vehicle id="103" depart="466.00">
        <route edges="right0D0 D0C0 C0B0 B0B1 B1B2 B2B3 B3top1"/>
    </vehicle>
    <vehicle id="104" depart="466.00">
        <route edges="top0A3 A3A2 A2left2"/>
    </vehicle>
    <vehicle id="105" depart="467.00">
        <route edges="bottom0A0 A0A1 A1A2 A2A3 A3B3 B3C3 C3D3 D3top3"/>
    </vehicle>
    <vehicle id="106" depart="470.00">
        <route edges="top3D3 D3D2 D2C2 C2B2 B2A2 A2left2"/>
    </vehicle>
    <vehicle id="107" depart="472.00">
        <route edges="top3D3 D3C3 C3B3 B3A3 A3left3"/>
    </vehicle>
    <vehicle id="108" depart="473.00">
        <route edges="top0A3 A3A2 A2A1 A1left1"/>
    </vehicle>
    <vehicle id="109" depart="474.00">
        <route edges="right2D2 D2D3 D3C3 C3B3 B3A3 A3left3"/>
    </vehicle>
    <vehicle id="110" depart="482.00">
        <route edges="left1A1 A1A0 A0bottom0"/>
    </vehicle>
    <vehicle id="111" depart="487.00">
        <route edges="left1A1 A1B1 B1C1 C1D1 D1D2 D2D3 D3top3"/>
    </vehicle>
    <vehicle id="112" depart="487.00">
        <route edges="left2A2 A2A1 A1left1"/>
    </vehicle>
    <vehicle id="113" depart="490.00">
        <route edges="top1B3 B3B2 B2B1 B1C1 C1D1 D1right1"/>
    </vehicle>
    <vehicle id="114" depart="494.00">
        <route edges="left3A3 A3B3 B3B2 B2A2 A2A3 A3left3"/>
    </vehicle>
    <vehicle id="115" depart="502.00">
        <route edges="right3D3 D3C3 C3C2 C2C1 C1B1 B1A1 A1left1"/>
    </vehicle>
    <vehicle id="116" depart="503.00">
        <route edges="right0D0 D0C0 C0bottom2"/>
    </vehicle>
    <vehicle id="117" depart="507.00">
        <route edges="top0A3 A3B3 B3C3 C3D3 D3right3"/>
    </vehicle>
    <vehicle id="118" depart="514.00">
        <route edges="left1A1 A1B1 B1B0 B0bottom1"/>
    </vehicle>
    <vehicle id="119" depart="525.00">
        <route edges="right2D2 D2C2 C2B2 B2A2 A2A1 A1A0 A0bottom0"/>
    </vehicle>
    <vehicle id="120" depart="526.00">
        <route edges="left2A2 A2B2 B2C2 C2D2 D2D3 D3top3"/>
    </vehicle>
    <vehicle id="121" depart="531.00">
        <route edges="right3D3 D3C3 C3C2 C2C1 C1C0 C0bottom2"/>
    </vehicle>
    <vehicle id="122" depart="534.00">
        <route edges="right0D0 D0C0 C0C1 C1D1 D1D0 D0right0"/>
    </vehicle>
    <vehicle id="123" depart="534.00">
        <route edges="left3A3 A3B3 B3top1"/>
    </vehicle>
    <vehicle id="124" depart="538.00">
        <route edges="right3D3 D3C3 C3C2 C2B2 B2A2 A2left2"/>
    </vehicle>
    <vehicle id="125" depart="546.00">
        <route edges="left2A2 A2B2 B2C2 C2D2 D2D3 D3top3"/>
    </vehicle>
    <vehicle id="126" depart="546.00">
        <route edges="left0A0 A0B0 B0B1 B1B2 B2B3 B3top1"/>
    </vehicle>
    <vehicle id="127" depart="548.00">
        <route edges="right1D1 D1D0 D0bottom3"/>
    </vehicle>
    <vehicle id="128" depart="549.00">
        <route edges="bottom3D0 D0D1 D1D2 D2D3 D3C3 C3B3 B3A3 A3left3"/>
    </vehicle>
    <vehicle id="129" depart="552.00">
        <route edges="right2D2 D2C2 C2C3 C3top2"/>
    </vehicle>
    <vehicle id="130" depart="555.00">
        <route edges="left0A0 A0B0 B0bottom1"/>
    </vehicle>
    <vehicle id="131" depart="564.00">
        <route edges="left0A0 A0A1 A1left1"/>
    </vehicle>
    <vehicle id="132" depart="565.00">
        <route edges="left0A0 A0B0 B0C0 C0D0 D0right0"/>
    </vehicle>
    <vehicle id="133" depart="570.00">
        <route edges="top0A3 A3A2 A2A1 A1B1 B1C1 C1D1 D1right1"/>
    </vehicle>
    <vehicle id="134" depart="572.00">
        <route edges="bottom2C0 C0B0 B0bottom1"/>
    </vehicle>
    <vehicle id="135" depart="579.00">
        <route edges="bottom0A0 A0A1 A1A2 A2A3 A3top0"/>
    </vehicle>
    <vehicle id="136" depart="580.00">
        <route edges="top1B3 B3B2 B2B1 B1B0 B0A0 A0left0"/>
    </vehicle>
    <vehicle id="137" depart="581.00">
        <route edges="right1D1 D1D0 D0bottom3"/>
    </vehicle>
    <vehicle id="138" depart="582.00">
        <route edges="right0D0 D0D1 D1C1 C1B1 B1A1 A1left1"/>
    </vehicle>
    <vehicle id="139" depart="583.00">
        <route edges="right2D2 D2C2 C2B2 B2B1 B1B0 B0bottom1"/>
    </vehicle>
    <vehicle id="140" depart="590.00">
        <route edges="left1A1 A1B1 B1B0 B0A0 A0A1 A1left1"/>
    </vehicle>
    <vehicle id="141" depart="601.00">
        <route edges="bottom0A0 A0left0"/>
    </vehicle>
    <vehicle id="142" depart="603.00">
        <route edges="right1D1 D1C1 C1C0 C0bottom2"/>
    </vehicle>
    <vehicle id="143" depart="603.00">
        <route edges="right3D3 D3D2 D2D1 D1right1"/>
    </vehicle>
    <vehicle id="144" depart="611.00">
        <route edges="bottom1B0 B0C0 C0D0 D0right0"/>
    </vehicle>
    <vehicle id="145" depart="616.00">
        <route edges="left0A0 A0B0 B0C0 C0D0 D0D1 D1D2 D2D3 D3top3"/>
    </vehicle>
    <vehicle id="146" depart="619.00">
        <route edges="right0D0 D0C0 C0B0 B0A0 A0A1 A1A2 A2A3 A3left3"/>
    </vehicle>
    <vehicle id="147" depart="621.00">
        <route edges="bottom0A0 A0B0 B0C0 C0D0 D0bottom3"/>
    </vehicle>
    <vehicle id="148" depart="622.00">
        <route edges="top1B3 B3B2 B2B1 B1C1 C1D1 D1right1"/>
    </vehicle>
    <vehicle id="149" depart="637.00">
        <route edges="left0A0 A0B0 B0C0 C0D0 D0right0"/>
    </vehicle>
    <vehicle id="150" depart="637.00">
        <route edges="left2A2 A2B2 B2B3 B3top1"/>
    </vehicle>
    <vehicle id="151" depart="639.00">
        <route edges="right3D3 D3C3 C3C2 C2B2 B2A2 A2left2"/>
    </vehicle>
    <vehicle id="152" depart="644.00">
        <route edges="right2D2 D2C2 C2B2 B2A2 A2left2"/>
    </vehicle>
    <vehicle id="153" depart="647.00">
        <route edges="bottom0A0 A0A1 A1left1"/>
    </vehicle>
    <vehicle id="154" depart="651.00">
        <route edges="bottom2C0 C0C1 C1D1 D1right1"/>
    </vehicle>
    <vehicle id="155" depart="656.00">
        <route edges="left3A3 A3B3 B3B2 B2A2 A2A3 A3left3"/>
    </vehicle>
    <vehicle id="156" depart="663.00">
        <route edges="right0D0 D0C0 C0bottom2"/>
    </vehicle>
    <vehicle id="157" depart="665.00">
        <route edges="top3D3 D3D2 D2C2 C2B2 B2A2 A2left2"/>
    </vehicle>
    <vehicle id="158" depart="667.00">
        <route edges="bottom1B0 B0B1 B1B2 B2B3 B3C3 C3D3 D3top3"/>
    </vehicle>
    <vehicle id="159" depart="672.00">
        <route edges="top2C3 C3D3 D3top3"/>
    </vehicle>
    <vehicle id="160" depart="680.00">
        <route edges="left3A3 A3B3 B3B2 B2B1 B1B0 B0bottom1"/>
    </vehicle>
    <vehicle id="161" depart="683.00">
        <route edges="left0A0 A0A1 A1A2 A2A3 A3left3"/>
    </vehicle>
    <vehicle id="162" depart="694.00">
        <route edges="right3D3 D3C3 C3B3 B3A3 A3A2 A2A1 A1A0 A0bottom0"/>
    </vehicle>
    <vehicle id="163" depart="694.00">
        <route edges="left3A3 A3A2 A2A1 A1A0 A0left0"/>
    </vehicle>
    <vehicle id="164" depart="705.00">
        <route edges="bottom2C0 C0C1 C1C2 C2B2 B2A2 A2left2"/>
    </vehicle>
    <vehicle id="165" depart="706.00">
        <route edges="right3D3 D3C3 C3B3 B3A3 A3top0"/>
    </vehicle>
    <vehicle id="166" depart="728.00">
        <route edges="top1B3 B3B2 B2C2 C2C1 C1C0 C0bottom2"/>
    </vehicle>
    <vehicle id="167" depart="730.00">
        <route edges="top2C3 C3C2 C2C1 C1D1 D1right1"/>
    </vehicle>
    <vehicle id="168" depart="733.00">
        <route edges="left2A2 A2B2 B2C2 C2D2 D2D1 D1D0 D0bottom3"/>
    </vehicle>
    <vehicle id="169" depart="736.00">
        <route edges="left3A3 A3B3 B3C3 C3D3 D3D2 D2D1 D1right1"/>
    </vehicle>
    <vehicle id="170" depart="737.00">
        <route edges="right1D1 D1C1 C1B1 B1A1 A1left1"/>
    </vehicle>
    <vehicle id="171" depart="741.00">
        <route edges="left2A2 A2A3 A3left3"/>
    </vehicle>
    <vehicle id="172" depart="745.00">
        <route edges="right1D1 D1C1 C1B1 B1A1 A1A2 A2A3 A3top0"/>
    </vehicle>
    <vehicle id="173" depart="747.00">
        <route edges="left0A0 A0A1 A1A2 A2A3 A3left3"/>
    </vehicle>
    <vehicle id="174" depart="751.00">
        <route edges="right1D1 D1C1 C1B1 B1A1 A1A2 A2A3 A3left3"/>
    </vehicle>
    <vehicle id="175" depart="754.00">
        <route edges="bottom2C0 C0C1 C1C2 C2D2 D2right2"/>
    </vehicle>
    <vehicle id="176" depart="755.00">
        <route edges="bottom2C0 C0C1 C1C2 C2C3 C3D3 D3right3"/>
    </vehicle>
    <vehicle id="177" depart="755.00">
        <route edges="left1A1 A1A0 A0bottom0"/>
    </vehicle>
    <vehicle id="178" depart="759.00">
        <route edges="top3D3 D3C3 C3B3 B3A3 A3left3"/>
    </vehicle>
    <vehicle id="179" depart="760.00">
        <route edges="left2A2 A2A3 A3left3"/>
    </vehicle>
    <vehicle id="180" depart="762.00">
        <route edges="top2C3 C3B3 B3A3 A3top0"/>
    </vehicle>
    <vehicle id="181" depart="766.00">
        <route edges="bottom0A0 A0B0 B0bottom1"/>
    </vehicle>
    <vehicle id="182" depart="766.00">
        <route edges="bottom3D0 D0C0 C0B0 B0A0 A0left0"/>
    </vehicle>
    <vehicle id="183" depart="773.00">
        <route edges="bottom2C0 C0C1 C1C2 C2D2 D2right2"/>
    </vehicle>
    <vehicle id="184" depart="773.00">
        <route edges="top0A3 A3A2 A2B2 B2C2 C2C1 C1C0 C0bottom2"/>
    </vehicle>
    <vehicle id="185" depart="775.00">
        <route edges="right3D3 D3C3 C3C2 C2C1 C1B1 B1A1 A1left1"/>
    </vehicle>
    <vehicle id="186" depart="782.00">
        <route edges="left1A1 A1A0 A0bottom0"/>
    </vehicle>
    <vehicle id="187" depart="792.00">
        <route edges="bottom3D0 D0D1 D1C1 C1B1 B1B2 B2B3 B3top1"/>
    </vehicle>
    <vehicle id="188" depart="793.00">
        <route edges="left1A1 A1B1 B1C1 C1D1 D1D0 D0bottom3"/>
    </vehicle>
    <vehicle id="189" depart="794.00">
        <route edges="left0A0 A0A1 A1A2 A2left2"/>
    </vehicle>
    <vehicle id="190" depart="801.00">
        <route edges="top1B3 B3B2 B2B1 B1B0 B0C0 C0D0 D0right0"/>
    </vehicle>
    <vehicle id="191" depart="802.00">
        <route edges="left3A3 A3B3 B3B2 B2A2 A2A3 A3left3"/>
    </vehicle>
    <vehicle id="192" depart="803.00">
        <route edges="bottom0A0 A0A1 A1A2 A2A3 A3B3 B3C3 C3D3 D3right3"/>
    </vehicle>
    <vehicle id="193" depart="806.00">
        <route edges="right2D2 D2C2 C2C3 C3top2"/>
    </vehicle>
    <vehicle id="194" depart="807.00">
        <route edges="right2D2 D2D1 D1right1"/>
    </vehicle>
    <vehicle id="195" depart="808.00">
        <route edges="right3D3 D3C3 C3C2 C2C1 C1C0 C0bottom2"/>
    </vehicle>
    <vehicle id="196" depart="818.00">
        <route edges="bottom0A0 A0A1 A1A2 A2A3 A3top0"/>
    </vehicle>
    <vehicle id="197" depart="818.00">
        <route edges="top2C3 C3C2 C2C1 C1C0 C0bottom2"/>
    </vehicle>
    <vehicle id="198" depart="819.00">
        <route edges="right2D2 D2D3 D3C3 C3B3 B3A3 A3left3"/>
    </vehicle>
    <vehicle id="199" depart="819.00">
        <route edges="bottom3D0 D0D1 D1C1 C1B1 B1A1 A1A2 A2A3 A3top0"/>
    </vehicle>
    <vehicle id="200" depart="824.00">
        <route edges="left2A2 A2B2 B2B1 B1B0 B0bottom1"/>
    </vehicle>
    <vehicle id="201" depart="829.00">
        <route edges="bottom0A0 A0A1 A1left1"/>
    </vehicle>
    <vehicle id="202" depart="836.00">
        <route edges="bottom3D0 D0D1 D1D2 D2D3 D3right3"/>
    </vehicle>
    <vehicle id="203" depart="841.00">
        <route edges="right2D2 D2C2 C2C1 C1C0 C0B0 B0A0 A0left0"/>
    </vehicle>
    <vehicle id="204" depart="845.00">
        <route edges="bottom2C0 C0C1 C1D1 D1D0 D0C0 C0bottom2"/>
    </vehicle>
    <vehicle id="205" depart="847.00">
        <route edges="bottom1B0 B0B1 B1B2 B2A2 A2left2"/>
    </vehicle>
    <vehicle id="206" depart="852.00">
        <route edges="right2D2 D2C2 C2C3 C3D3 D3D2 D2right2"/>
    </vehicle>
    <vehicle id="207" depart="855.00">
        <route edges="top3D3 D3C3 C3B3 B3top1"/>
    </vehicle>
    <vehicle id="208" depart="859.00">
        <route edges="right0D0 D0C0 C0C1 C1C2 C2C3 C3top2"/>
    </vehicle>
    <vehicle id="209" depart="860.00">
        <route edges="top2C3 C3C2 C2B2 B2A2 A2left2"/>
    </vehicle>
    <vehicle id="210" depart="861.00">
        <route edges="right0D0 D0C0 C0B0 B0A0 A0bottom0"/>
    </vehicle>
    <vehicle id="211" depart="862.00">
        <route edges="top0A3 A3A2 A2left2"/>
    </vehicle>
    <vehicle id="212" depart="864.00">
        <route edges="left1A1 A1B1 B1C1 C1D1 D1D2 D2D3 D3top3"/>
    </vehicle>
    <vehicle id="213" depart="870.00">
        <route edges="bottom1B0 B0B1 B1A1 A1left1"/>
    </vehicle>
    <vehicle id="214" depart="875.00">
        <route edges="top2C3 C3B3 B3top1"/>
    </vehicle>
    <vehicle id="215" depart="875.00">
        <route edges="right1D1 D1C1 C1C0 C0B0 B0A0 A0left0"/>
    </vehicle>
    <vehicle id="216" depart="876.00">
        <route edges="right0D0 D0D1 D1right1"/>
    </vehicle>
    <vehicle id="217" depart="882.00">
        <route edges="bottom2C0 C0D0 D0right0"/>
    </vehicle>
    <vehicle id="218" depart="885.00">
        <route edges="right3D3 D3D2 D2right2"/>
    </vehicle>
    <vehicle id="219" depart="891.00">
        <route edges="left0A0 A0B0 B0C0 C0D0 D0right0"/>
    </vehicle>
    <vehicle id="220" depart="891.00">
        <route edges="right1D1 D1C1 C1C0 C0B0 B0A0 A0left0"/>
    </vehicle>
    <vehicle id="221" depart="893.00">
        <route edges="bottom1B0 B0B1 B1A1 A1left1"/>
    </vehicle>
    <vehicle id="222" depart="896.00">
        <route edges="top3D3 D3D2 D2D1 D1C1 C1B1 B1A1 A1left1"/>
    </vehicle>
    <vehicle id="223" depart="897.00">
        <route edges="right1D1 D1D2 D2D3 D3right3"/>
    </vehicle>
    <vehicle id="224" depart="901.00">
        <route edges="bottom2C0 C0B0 B0bottom1"/>
    </vehicle>
    <vehicle id="225" depart="902.00">
        <route edges="right0D0 D0D1 D1C1 C1B1 B1A1 A1left1"/>
    </vehicle>
    <vehicle id="226" depart="912.00">
        <route edges="left1A1 A1B1 B1B0 B0A0 A0A1 A1left1"/>
    </vehicle>
    <vehicle id="227" depart="917.00">
        <route edges="right1D1 D1C1 C1B1 B1A1 A1A2 A2A3 A3top0"/>
    </vehicle>
    <vehicle id="228" depart="919.00">
        <route edges="bottom3D0 D0D1 D1C1 C1B1 B1A1 A1A2 A2A3 A3top0"/>
    </vehicle>
    <vehicle id="229" depart="921.00">
        <route edges="left0A0 A0B0 B0C0 C0D0 D0D1 D1D2 D2D3 D3top3"/>
    </vehicle>
    <vehicle id="230" depart="923.00">
        <route edges="bottom3D0 D0D1 D1D2 D2C2 C2B2 B2A2 A2left2"/>
    </vehicle>
    <vehicle id="231" depart="925.00">
        <route edges="right2D2 D2C2 C2B2 B2A2 A2A1 A1A0 A0bottom0"/>
    </vehicle>
    <vehicle id="232" depart="925.00">
        <route edges="top0A3 A3A2 A2A1 A1left1"/>
    </vehicle>
    <vehicle id="233" depart="927.00">
        <route edges="left0A0 A0B0 B0C0 C0D0 D0right0"/>
    </vehicle>
    <vehicle id="234" depart="929.00">
        <route edges="top0A3 A3A2 A2A1 A1left1"/>
    </vehicle>
    <vehicle id="235" depart="930.00">
        <route edges="right2D2 D2C2 C2C1 C1C0 C0bottom2"/>
    </vehicle>
    <vehicle id="236" depart="932.00">
        <route edges="bottom2C0 C0C1 C1B1 B1B2 B2B3 B3top1"/>
    </vehicle>
    <vehicle id="237" depart="933.00">
        <route edges="top1B3 B3A3 A3A2 A2A1 A1A0 A0bottom0"/>
    </vehicle>
    <vehicle id="238" depart="934.00">
        <route edges="bottom2C0 C0C1 C1D1 D1right1"/>
    </vehicle>
    <vehicle id="239" depart="937.00">
        <route edges="top1B3 B3A3 A3top0"/>
    </vehicle>
    <vehicle id="240" depart="939.00">
        <route edges="left3A3 A3A2 A2A1 A1left1"/>
    </vehicle>
    <vehicle id="241" depart="943.00">
        <route edges="bottom2C0 C0D0 D0bottom3"/>
    </vehicle>
    <vehicle id="242" depart="948.00">
        <route edges="bottom1B0 B0B1 B1A1 A1left1"/>
    </vehicle>
    <vehicle id="243" depart="949.00">
        <route edges="bottom2C0 C0C1 C1C2 C2B2 B2A2 A2left2"/>
    </vehicle>
    <vehicle id="244" depart="956.00">
        <route edges="bottom0A0 A0A1 A1B1 B1C1 C1D1 D1right1"/>
    </vehicle>
    <vehicle id="245" depart="959.00">
        <route edges="bottom3D0 D0C0 C0B0 B0A0 A0left0"/>
    </vehicle>
    <vehicle id="246" depart="965.00">
        <route edges="left0A0 A0bottom0"/>
    </vehicle>
    <vehicle id="247" depart="966.00">
        <route edges="bottom2C0 C0D0 D0right0"/>
    </vehicle>
    <vehicle id="248" depart="970.00">
        <route edges="right3D3 D3D2 D2D1 D1right1"/>
    </vehicle>
    <vehicle id="249" depart="971.00">
        <route edges="left0A0 A0A1 A1B1 B1B0 B0A0 A0left0"/>
    </vehicle>
    <vehicle id="250" depart="977.00">
        <route edges="top1B3 B3C3 C3D3 D3right3"/>
    </vehicle>
    <vehicle id="251" depart="977.00">
        <route edges="bottom3D0 D0C0 C0C1 C1D1 D1D0 D0bottom3"/>
    </vehicle>
    <vehicle id="252" depart="977.00">
        <route edges="top0A3 A3A2 A2A1 A1B1 B1C1 C1D1 D1right1"/>
    </vehicle>
    <vehicle id="253" depart="987.00">
        <route edges="left3A3 A3B3 B3C3 C3top2"/>
    </vehicle>
    <vehicle id="254" depart="990.00">
        <route edges="bottom3D0 D0D1 D1C1 C1B1 B1A1 A1A2 A2A3 A3top0"/>
    </vehicle>
    <vehicle id="255" depart="992.00">
        <route edges="right2D2 D2D1 D1right1"/>
    </vehicle>
    <vehicle id="256" depart="1000.00">
        <route edges="bottom1B0 B0C0 C0D0 D0bottom3"/>
    </vehicle>
    <vehicle id="257" depart="1000.00">