<?xml version="1.0" encoding="UTF-8"?>

<!-- generated on 2021-05-27 00:35:37 by Eclipse SUMO netedit Version 1.9.1
<configuration xmlns:xsi="http://www.w3.org/2001/XMLSchema-instance" xsi:noNamespaceSchemaLocation="http://sumo.dlr.de/xsd/netconvertConfiguration.xsd">

    <input>
        <sumo-net-file value="C:\Users\James\Dropbox\MATraffic\environments\ingolstadt21\ingolstadt21.net.xml"/>
    </input>

    <output>
        <output-file value="C:\Users\James\Dropbox\MATraffic\environments\ingolstadt21\ingolstadt21.net.xml"/>
    </output>

    <processing>
        <geometry.min-radius.fix.railways value="false"/>
        <geometry.max-grade.fix value="false"/>
        <offset.disable-normalization value="true"/>
        <lefthand value="false"/>
    </processing>

    <junctions>
        <no-turnarounds value="true"/>
        <junctions.corner-detail value="5"/>
        <junctions.limit-turn-speed value="5.5"/>
        <rectangular-lane-cut value="false"/>
    </junctions>

    <pedestrian>
        <walkingareas value="false"/>
    </pedestrian>

    <report>
        <aggregate-warnings value="5"/>
    </report>

</configuration>
-->

<net version="1.9" junctionCornerDetail="5" limitTurnSpeed="5.50" xmlns:xsi="http://www.w3.org/2001/XMLSchema-instance" xsi:noNamespaceSchemaLocation="http://sumo.dlr.de/xsd/net_file.xsd">

    <location netOffset="-464198.88,-4952821.58" convBoundary="211142.16,450766.10,213809.54,453436.65" origBoundary="8.520516,43.618350,29.768112,49.031374" projParameter="+proj=utm +zone=32 +ellps=WGS84 +datum=WGS84 +units=m +no_defs"/>

    <type id="highway.bridleway" priority="1" numLanes="1" speed="2.78" allow="pedestrian" oneway="1" width="2.00"/>
    <type id="highway.bus_guideway" priority="1" numLanes="1" speed="27.78" allow="bus" oneway="1"/>
    <type id="highway.cycleway" priority="1" numLanes="1" speed="8.33" allow="bicycle" oneway="1" width="1.00"/>
    <type id="highway.footway" priority="1" numLanes="1" speed="2.78" allow="pedestrian" oneway="1" width="2.00"/>
    <type id="highway.ford" priority="1" numLanes="1" speed="2.78" allow="army" oneway="1"/>
    <type id="highway.living_street" priority="3" numLanes="1" speed="2.78" disallow="tram rail_urban rail rail_electric ship" oneway="1"/>
    <type id="highway.motorway" priority="13" numLanes="2" speed="44.44" allow="private emergency authority army vip passenger hov taxi bus coach delivery truck trailer motorcycle evehicle custom1 custom2" oneway="1"/>
    <type id="highway.motorway_link" priority="12" numLanes="1" speed="22.22" allow="private emergency authority army vip passenger hov taxi bus coach delivery truck trailer motorcycle evehicle custom1 custom2" oneway="1"/>
    <type id="highway.path" priority="1" numLanes="1" speed="2.78" allow="pedestrian bicycle" oneway="1" width="2.00"/>
    <type id="highway.pedestrian" priority="1" numLanes="1" speed="2.78" allow="pedestrian" oneway="1" width="2.00"/>
    <type id="highway.primary" priority="9" numLanes="2" speed="27.78" disallow="tram rail_urban rail rail_electric ship" oneway="1"/>
    <type id="highway.primary_link" priority="8" numLanes="1" speed="22.22" disallow="tram rail_urban rail rail_electric ship" oneway="1"/>
    <type id="highway.raceway" priority="14" numLanes="2" speed="83.33" allow="vip" oneway="1"/>
    <type id="highway.residential" priority="4" numLanes="1" speed="13.89" disallow="tram rail_urban rail rail_electric ship" oneway="1"/>
    <type id="highway.secondary" priority="7" numLanes="2" speed="27.78" disallow="tram rail_urban rail rail_electric ship" oneway="1"/>
    <type id="highway.secondary_link" priority="6" numLanes="1" speed="22.22" disallow="tram rail_urban rail rail_electric ship" oneway="1"/>
    <type id="highway.service" priority="2" numLanes="1" speed="5.56" allow="pedestrian delivery bicycle" oneway="1"/>
    <type id="highway.stairs" priority="1" numLanes="1" speed="1.39" allow="pedestrian" oneway="1" width="2.00"/>
    <type id="highway.step" priority="1" numLanes="1" speed="1.39" allow="pedestrian" oneway="1" width="2.00"/>
    <type id="highway.steps" priority="1" numLanes="1" speed="1.39" allow="pedestrian" oneway="1" width="2.00"/>
    <type id="highway.tertiary" priority="6" numLanes="1" speed="22.22" disallow="tram rail_urban rail rail_electric ship" oneway="1"/>
    <type id="highway.tertiary_link" priority="5" numLanes="1" speed="22.22" disallow="tram rail_urban rail rail_electric ship" oneway="1"/>
    <type id="highway.track" priority="1" numLanes="1" speed="5.56" disallow="tram rail_urban rail rail_electric ship" oneway="1"/>
    <type id="highway.trunk" priority="11" numLanes="2" speed="27.78" disallow="pedestrian bicycle tram rail_urban rail rail_electric ship" oneway="1"/>
    <type id="highway.trunk_link" priority="10" numLanes="1" speed="22.22" disallow="pedestrian bicycle tram rail_urban rail rail_electric ship" oneway="1"/>
    <type id="highway.unclassified" priority="5" numLanes="1" speed="13.89" disallow="tram rail_urban rail rail_electric ship" oneway="1"/>
    <type id="highway.unsurfaced" priority="1" numLanes="1" speed="8.33" disallow="tram rail_urban rail rail_electric ship" oneway="1"/>
    <type id="railway.light_rail" priority="18" numLanes="1" speed="27.78" allow="rail_urban" oneway="1"/>
    <type id="railway.preserved" priority="15" numLanes="1" speed="27.78" allow="rail" oneway="1"/>
    <type id="railway.rail" priority="19" numLanes="1" speed="83.33" allow="rail rail_electric" oneway="1"/>
    <type id="railway.subway" priority="17" numLanes="1" speed="27.78" allow="rail_urban" oneway="1"/>
    <type id="railway.tram" priority="16" numLanes="1" speed="13.89" allow="tram" oneway="1"/>

    <edge id=":1041665529_0" function="internal">
        <lane id=":1041665529_0_0" index="0" disallow="pedestrian tram rail_urban rail rail_electric rail_fast ship" speed="7.68" length="1.49" shape="212584.11,451333.22 212583.72,451333.41 212583.45,451333.57 212583.23,451333.77 212582.93,451334.10"/>
    </edge>
    <edge id=":1041665529_1" function="internal">
        <lane id=":1041665529_1_0" index="0" disallow="pedestrian tram rail_urban rail rail_electric rail_fast ship" speed="8.33" length="2.82" shape="212580.54,451331.96 212581.11,451331.35 212581.54,451330.97 212582.03,451330.67 212582.78,451330.31"/>
    </edge>
    <edge id=":1082831889_0" function="internal">
        <lane id=":1082831889_0_0" index="0" disallow="pedestrian tram rail_urban rail rail_electric rail_fast ship" speed="3.65" length="4.67" shape="212059.87,451565.34 212061.25,451565.75 212061.87,451566.40 212061.72,451567.28 212060.81,451568.40"/>
    </edge>
    <edge id=":1137585389_0" function="internal">
        <lane id=":1137585389_0_0" index="0" disallow="pedestrian tram rail_urban rail rail_electric rail_fast ship" speed="6.42" length="9.31" shape="212014.18,452673.57 212011.69,452672.88 212009.64,452673.18 212008.03,452674.48 212006.84,452676.77"/>
    </edge>
    <edge id=":1137585389_1" function="internal">
        <lane id=":1137585389_1_0" index="0" disallow="pedestrian tram rail_urban rail rail_electric rail_fast ship" speed="8.84" length="13.84" shape="212014.18,452673.57 212010.70,452671.57 212008.35,452669.13 212007.14,452666.25 212007.06,452662.94"/>
    </edge>
    <edge id=":1137585389_2" function="internal">
        <lane id=":1137585389_2_0" index="0" disallow="pedestrian tram rail_urban rail rail_electric rail_fast ship" speed="7.48" length="9.67" shape="212010.23,452663.38 212010.31,452665.58 212011.21,452667.53 212012.93,452669.22 212015.47,452670.64"/>
    </edge>
    <edge id=":1137585389_3" function="internal">
        <lane id=":1137585389_3_0" index="0" disallow="pedestrian tram rail_urban rail rail_electric rail_fast ship" speed="22.22" length="13.86" shape="212010.23,452663.38 212009.62,452667.44 212009.03,452670.19 212008.19,452672.89 212006.84,452676.77"/>
    </edge>
    <edge id=":1137585389_4" function="internal">
        <lane id=":1137585389_4_0" index="0" disallow="pedestrian tram rail_urban rail rail_electric rail_fast ship" speed="22.22" length="13.23" shape="212003.82,452675.73 212005.11,452672.02 212005.91,452669.44 212006.47,452666.82 212007.06,452662.94"/>
    </edge>
    <edge id=":1137585389_5" function="internal">
        <lane id=":1137585389_5_0" index="0" disallow="pedestrian tram rail_urban rail rail_electric rail_fast ship" speed="7.93" length="5.92" shape="212003.82,452675.73 212005.70,452672.09 212007.12,452670.94"/>
    </edge>
    <edge id=":1137585389_6" function="internal">
        <lane id=":1137585389_6_0" index="0" disallow="pedestrian tram rail_urban rail rail_electric rail_fast ship" speed="7.93" length="8.86" shape="212007.12,452670.94 212008.26,452670.02 212011.52,452669.54 212015.47,452670.64"/>
    </edge>
    <edge id=":1137585395_0" function="internal">
        <lane id=":1137585395_0_0" index="0" disallow="pedestrian tram rail_urban rail rail_electric rail_fast ship" speed="22.22" length="14.62" shape="212066.36,452810.82 212062.13,452810.18 212059.12,452810.50 212056.10,452810.83 212051.87,452810.21"/>
    </edge>
    <edge id=":1137585395_1" function="internal">
        <lane id=":1137585395_1_0" index="0" disallow="pedestrian tram rail_urban rail rail_electric rail_fast ship" speed="8.69" length="5.13" shape="212066.36,452810.82 212063.00,452809.15 212062.19,452808.03"/>
    </edge>
    <edge id=":1137585395_6" function="internal">
        <lane id=":1137585395_6_0" index="0" disallow="pedestrian tram rail_urban rail rail_electric rail_fast ship" speed="8.69" length="11.19" shape="212062.19,452808.03 212060.96,452806.35 212060.25,452802.41 212060.85,452797.34"/>
    </edge>
    <edge id=":1137585395_2" function="internal">
        <lane id=":1137585395_2_0" index="0" disallow="pedestrian tram rail_urban rail rail_electric rail_fast ship" speed="6.55" length="8.82" shape="212063.99,452797.98 212063.80,452800.36 212064.42,452802.26 212065.84,452803.69 212068.06,452804.65"/>
    </edge>
    <edge id=":1137585395_3" function="internal">
        <lane id=":1137585395_3_0" index="0" disallow="pedestrian tram rail_urban rail rail_electric rail_fast ship" speed="8.49" length="16.63" shape="212063.99,452797.98 212062.32,452802.85 212059.88,452806.00 212056.67,452807.42 212052.69,452807.12"/>
    </edge>
    <edge id=":1137585395_4" function="internal">
        <lane id=":1137585395_4_0" index="0" disallow="pedestrian tram rail_urban rail rail_electric rail_fast ship" speed="7.10" length="11.29" shape="212053.52,452804.03 212056.04,452804.16 212058.10,452803.09 212059.71,452800.82 212060.85,452797.34"/>
    </edge>
    <edge id=":1137585395_5" function="internal">
        <lane id=":1137585395_5_0" index="0" disallow="pedestrian tram rail_urban rail rail_electric rail_fast ship" speed="22.22" length="14.18" shape="212053.52,452804.03 212067.21,452807.74"/>
    </edge>
    <edge id=":1195228772_0" function="internal">
        <lane id=":1195228772_0_0" index="0" disallow="pedestrian tram rail_urban rail rail_electric rail_fast ship" speed="13.89" length="0.47" shape="213048.20,451306.94 213047.96,451306.93 213047.80,451306.91 213047.64,451306.89 213047.41,451306.86"/>
        <lane id=":1195228772_0_1" index="1" disallow="pedestrian tram rail_urban rail rail_electric rail_fast ship" speed="13.89" length="0.47" shape="213048.37,451303.74 213048.23,451303.74 213048.13,451303.73 213048.03,451303.72 213047.90,451303.70"/>
        <lane id=":1195228772_0_2" index="2" disallow="pedestrian tram rail_urban rail rail_electric rail_fast ship" speed="13.89" length="0.47" shape="213048.54,451300.55 213048.49,451300.55 213048.46,451300.54 213048.42,451300.54 213048.38,451300.53"/>
    </edge>
    <edge id=":1200363932_0" function="internal">
        <lane id=":1200363932_0_0" index="0" disallow="pedestrian tram rail_urban rail rail_electric rail_fast ship" speed="13.89" length="19.06" shape="213010.40,451607.35 213004.89,451607.91 213001.06,451608.37 212997.47,451609.52 212992.70,451612.15"/>
        <lane id=":1200363932_0_1" index="1" disallow="pedestrian tram rail_urban rail rail_electric rail_fast ship" speed="13.89" length="19.06" shape="213009.52,451604.24 213003.75,451604.85 212999.75,451605.39 212996.00,451606.65 212991.01,451609.43"/>
    </edge>
    <edge id=":1200363932_2" function="internal">
        <lane id=":1200363932_2_0" index="0" disallow="pedestrian tram rail_urban rail rail_electric rail_fast ship" speed="13.89" length="18.47" shape="213006.04,451599.30 213002.34,451603.42 212999.89,451606.38 212997.19,451609.01 212992.70,451612.15"/>
        <lane id=":1200363932_2_1" index="1" disallow="pedestrian tram rail_urban rail rail_electric rail_fast ship" speed="13.89" length="18.47" shape="213003.67,451597.01 213001.39,451601.78 212998.95,451604.56 212995.71,451606.68 212991.01,451609.43"/>
    </edge>
    <edge id=":1200363969_0" function="internal">
        <lane id=":1200363969_0_0" index="0" disallow="pedestrian tram rail_urban rail rail_electric rail_fast ship" speed="6.51" length="9.03" shape="212989.44,451529.73 212988.55,451527.42 212987.13,451525.95 212985.19,451525.32 212982.73,451525.52"/>
    </edge>
    <edge id=":1200363969_1" function="internal">
        <lane id=":1200363969_1_0" index="0" disallow="pedestrian tram rail_urban rail rail_electric rail_fast ship" speed="13.89" length="13.85" shape="212989.44,451529.73 212988.51,451525.67 212987.94,451522.87 212987.52,451520.06 212987.03,451515.92"/>
        <lane id=":1200363969_1_1" index="1" disallow="pedestrian tram rail_urban rail rail_electric rail_fast ship" speed="13.89" length="13.85" shape="212992.56,451529.01 212991.65,451525.05 212991.10,451522.33 212990.69,451519.58 212990.20,451515.55"/>
    </edge>
    <edge id=":1200363969_3" function="internal">
        <lane id=":1200363969_3_0" index="0" disallow="pedestrian tram rail_urban rail rail_electric rail_fast ship" speed="6.81" length="9.13" shape="212982.01,451522.41 212984.43,451521.52 212986.07,451520.14 212986.94,451518.27 212987.03,451515.92"/>
    </edge>
    <edge id=":1200363973_0" function="internal">
        <lane id=":1200363973_0_0" index="0" disallow="pedestrian tram rail_urban rail rail_electric rail_fast ship" speed="13.89" length="8.10" shape="213003.70,451489.81 213004.11,451491.98 213005.19,451493.29 213006.36,451494.60 213007.03,451496.77"/>
        <lane id=":1200363973_0_1" index="1" disallow="pedestrian tram rail_urban rail rail_electric rail_fast ship" speed="13.89" length="8.10" shape="213000.51,451489.68 213000.91,451491.96 213001.99,451493.35 213003.16,451494.74 213003.84,451497.02"/>
        <lane id=":1200363973_0_2" index="2" disallow="pedestrian tram rail_urban rail rail_electric rail_fast ship" speed="13.89" length="8.10" shape="213000.51,451489.68 213000.42,451491.93 213000.41,451493.48 213000.48,451495.02 213000.64,451497.27"/>
        <lane id=":1200363973_0_3" index="3" disallow="pedestrian tram rail_urban rail rail_electric rail_fast ship" speed="13.89" length="8.10" shape="213000.51,451489.68 212999.91,451492.09 212998.79,451493.60 212997.77,451495.11 212997.45,451497.52"/>
    </edge>
    <edge id=":1205464844_0" function="internal">
        <lane id=":1205464844_0_0" index="0" disallow="pedestrian tram rail_urban rail rail_electric rail_fast ship" speed="13.89" length="8.02" shape="213400.80,452101.64 213400.78,452109.66"/>
    </edge>
    <edge id=":1205464844_1" function="internal">
        <lane id=":1205464844_1_0" index="0" disallow="pedestrian tram rail_urban rail rail_electric rail_fast ship" speed="13.89" length="8.37" shape="213397.58,452109.63 213397.11,452107.18 213396.01,452105.65 213394.91,452104.12 213394.40,452101.67"/>
        <lane id=":1205464844_1_1" index="1" disallow="pedestrian tram rail_urban rail rail_electric rail_fast ship" speed="13.89" length="8.37" shape="213397.58,452109.63 213397.60,452101.65"/>
    </edge>
    <edge id=":1331204959_0" function="internal">
        <lane id=":1331204959_0_0" index="0" disallow="pedestrian tram rail_urban rail rail_electric rail_fast ship" speed="13.89" length="12.64" shape="212951.04,451610.12 212953.80,451607.82 212955.54,451606.08 212957.21,451604.25 212959.73,451601.67"/>
        <lane id=":1331204959_0_1" index="1" disallow="pedestrian tram rail_urban rail rail_electric rail_fast ship" speed="13.89" length="12.64" shape="212953.01,451612.64 212955.85,451610.28 212957.65,451608.49 212959.36,451606.61 212961.96,451603.97"/>
        <lane id=":1331204959_0_2" index="2" disallow="pedestrian tram rail_urban rail rail_electric rail_fast ship" speed="13.89" length="12.64" shape="212954.99,451615.16 212957.90,451612.73 212959.75,451610.91 212961.52,451608.98 212964.18,451606.27"/>
        <lane id=":1331204959_0_3" index="3" disallow="pedestrian tram rail_urban rail rail_electric rail_fast ship" speed="13.89" length="12.64" shape="212956.96,451617.68 212959.96,451615.19 212961.86,451613.32 212963.68,451611.35 212966.41,451608.56"/>
    </edge>
    <edge id=":1331204959_4" function="internal">
        <lane id=":1331204959_4_0" index="0" disallow="pedestrian tram rail_urban rail rail_electric rail_fast ship" speed="6.49" length="9.72" shape="212956.96,451617.68 212959.37,451616.27 212961.54,451615.99 212963.48,451616.85 212965.18,451618.83"/>
    </edge>
    <edge id=":1331204963_0" function="internal">
        <lane id=":1331204963_0_0" index="0" disallow="pedestrian tram rail_urban rail rail_electric rail_fast ship" speed="13.89" length="9.34" shape="212973.98,451623.42 212965.92,451628.12"/>
        <lane id=":1331204963_0_1" index="1" disallow="pedestrian tram rail_urban rail rail_electric rail_fast ship" speed="13.89" length="9.34" shape="212972.37,451620.66 212964.30,451625.36"/>
    </edge>
    <edge id=":1331204963_2" function="internal">
        <lane id=":1331204963_2_0" index="0" disallow="pedestrian tram rail_urban rail rail_electric rail_fast ship" speed="6.81" length="8.76" shape="212965.29,451619.00 212966.94,451622.18 212967.60,451624.76 212967.26,451626.74 212965.92,451628.12"/>
        <lane id=":1331204963_2_1" index="1" disallow="pedestrian tram rail_urban rail rail_electric rail_fast ship" speed="5.90" length="8.76" shape="212965.29,451619.00 212966.21,451620.99 212966.35,451622.71 212965.71,451624.17 212964.30,451625.36"/>
    </edge>
    <edge id=":1387938626_0" function="internal">
        <lane id=":1387938626_0_0" index="0" disallow="pedestrian tram rail_urban rail rail_electric rail_fast ship" speed="13.89" length="8.19" shape="213080.62,451165.48 213079.76,451167.73 213079.52,451169.42 213079.28,451171.09 213078.39,451173.34"/>
        <lane id=":1387938626_0_1" index="1" disallow="pedestrian tram rail_urban rail rail_electric rail_fast ship" speed="13.89" length="8.19" shape="213077.77,451164.03 213076.91,451166.28 213076.67,451167.95 213076.43,451169.63 213075.55,451171.86"/>
        <lane id=":1387938626_0_2" index="2" disallow="pedestrian tram rail_urban rail rail_electric rail_fast ship" speed="13.89" length="8.19" shape="213077.77,451164.03 213076.47,451166.05 213075.25,451167.22 213074.03,451168.39 213072.71,451170.39"/>
    </edge>
    <edge id=":1423242655_0" function="internal">
        <lane id=":1423242655_0_0" index="0" disallow="pedestrian tram rail_urban rail rail_electric rail_fast ship" speed="2.78" length="4.04" shape="212088.49,451912.66 212087.63,451911.97 212086.62,451910.95 212085.77,451910.19 212085.42,451910.31"/>
    </edge>
    <edge id=":1423242655_1" function="internal">
        <lane id=":1423242655_1_0" index="0" disallow="pedestrian tram rail_urban rail rail_electric rail_fast ship" speed="2.78" length="12.31" shape="212088.49,451912.66 212085.75,451910.89 212083.95,451908.63 212083.09,451905.87 212083.18,451902.60"/>
    </edge>
    <edge id=":1423242655_2" function="internal">
        <lane id=":1423242655_2_0" index="0" disallow="pedestrian tram rail_urban rail rail_electric rail_fast ship" speed="2.78" length="8.14" shape="212086.34,451903.11 212086.28,451905.27 212086.85,451907.10 212088.04,451908.59 212089.85,451909.76"/>
    </edge>
    <edge id=":1423242655_3" function="internal">
        <lane id=":1423242655_3_0" index="0" disallow="pedestrian tram rail_urban rail rail_electric rail_fast ship" speed="2.78" length="7.27" shape="212086.34,451903.11 212085.96,451905.24 212085.68,451906.69 212085.49,451908.16 212085.42,451910.31"/>
    </edge>
    <edge id=":1423242655_4" function="internal">
        <lane id=":1423242655_4_0" index="0" disallow="pedestrian tram rail_urban rail rail_electric rail_fast ship" speed="2.78" length="7.76" shape="212082.22,451910.28 212082.29,451907.99 212082.48,451906.43 212082.78,451904.87 212083.18,451902.60"/>
    </edge>
    <edge id=":1423242655_5" function="internal">
        <lane id=":1423242655_5_0" index="0" disallow="pedestrian tram rail_urban rail rail_electric rail_fast ship" speed="2.78" length="9.20" shape="212082.22,451910.28 212082.71,451908.71 212084.14,451908.10 212086.52,451908.45 212089.85,451909.76"/>
    </edge>
    <edge id=":1423242663_0" function="internal">
        <lane id=":1423242663_0_0" index="0" disallow="pedestrian tram rail_urban rail rail_electric rail_fast ship" speed="2.78" length="0.25" shape="211835.52,451916.13 211835.64,451915.91"/>
    </edge>
    <edge id=":1423242663_1" function="internal">
        <lane id=":1423242663_1_0" index="0" disallow="pedestrian tram rail_urban rail rail_electric rail_fast ship" speed="2.78" length="0.10" shape="211832.94,451914.19 211832.99,451914.17"/>
    </edge>
    <edge id=":1423242665_0" function="internal">
        <lane id=":1423242665_0_0" index="0" disallow="pedestrian tram rail_urban rail rail_electric rail_fast ship" speed="2.78" length="2.06" shape="212088.78,451924.12 212088.23,451924.17 212087.76,451924.05 212087.37,451923.77 212087.04,451923.34"/>
    </edge>
    <edge id=":1423242665_1" function="internal">
        <lane id=":1423242665_1_0" index="0" disallow="pedestrian tram rail_urban rail rail_electric rail_fast ship" speed="2.78" length="2.06" shape="212089.84,451921.78 212089.51,451921.35 212089.12,451921.07 212088.65,451920.95 212088.10,451921.00"/>
    </edge>
    <edge id=":1423242716_0" function="internal">
        <lane id=":1423242716_0_0" index="0" disallow="pedestrian tram rail_urban rail rail_electric rail_fast ship" speed="13.88" length="2.23" shape="211902.11,451994.52 211902.24,451995.16 211902.30,451995.61 211902.29,451996.07 211902.23,451996.73"/>
    </edge>
    <edge id=":1423242716_1" function="internal">
        <lane id=":1423242716_1_0" index="0" disallow="pedestrian tram rail_urban rail rail_electric rail_fast ship" speed="10.20" length="1.18" shape="211899.05,451996.38 211899.08,451996.03 211899.09,451995.79 211899.05,451995.55 211898.98,451995.21"/>
    </edge>
    <edge id=":1427494803_0" function="internal">
        <lane id=":1427494803_0_0" index="0" disallow="pedestrian tram rail_urban rail rail_electric rail_fast ship" speed="13.89" length="8.59" shape="213116.69,453233.90 213115.92,453236.33 213116.11,453238.24 213116.29,453240.14 213115.47,453242.54"/>
        <lane id=":1427494803_0_1" index="1" disallow="pedestrian tram rail_urban rail rail_electric rail_fast ship" speed="13.89" length="8.59" shape="213113.89,453232.36 213113.13,453234.77 213113.33,453236.66 213113.52,453238.55 213112.71,453240.93"/>
        <lane id=":1427494803_0_2" index="2" disallow="pedestrian tram rail_urban rail rail_electric rail_fast ship" speed="13.89" length="8.59" shape="213113.89,453232.36 213109.94,453239.33"/>
    </edge>
    <edge id=":1427494803_3" function="internal">
        <lane id=":1427494803_3_0" index="0" disallow="pedestrian tram rail_urban rail rail_electric rail_fast ship" speed="13.89" length="8.44" shape="213104.41,453236.11 213105.19,453233.78 213104.98,453231.93 213104.75,453230.08 213105.48,453227.72"/>
        <lane id=":1427494803_3_1" index="1" disallow="pedestrian tram rail_urban rail rail_electric rail_fast ship" speed="13.89" length="8.44" shape="213107.17,453237.72 213107.96,453235.37 213107.76,453233.51 213107.54,453231.64 213108.29,453229.26"/>
        <lane id=":1427494803_3_2" index="2" disallow="pedestrian tram rail_urban rail rail_electric rail_fast ship" speed="13.89" length="8.44" shape="213107.17,453237.72 213111.09,453230.81"/>
    </edge>
    <edge id=":1427494830_0" function="internal">
        <lane id=":1427494830_0_0" index="0" disallow="pedestrian tram rail_urban rail rail_electric rail_fast ship" speed="13.89" length="8.11" shape="212993.72,453344.13 212987.07,453339.50"/>
    </edge>
    <edge id=":1427494830_1" function="internal">
        <lane id=":1427494830_1_0" index="0" disallow="pedestrian tram rail_urban rail rail_electric rail_fast ship" speed="13.89" length="7.85" shape="212988.78,453336.79 212990.92,453337.56 212992.64,453337.29 212994.41,453336.92 212996.72,453337.38"/>
        <lane id=":1427494830_1_1" index="1" disallow="pedestrian tram rail_urban rail rail_electric rail_fast ship" speed="13.89" length="7.85" shape="212988.78,453336.79 212990.67,453337.98 212992.00,453338.74 212993.37,453339.41 212995.42,453340.30"/>
    </edge>
    <edge id=":1504207551_0" function="internal">
        <lane id=":1504207551_0_0" index="0" disallow="pedestrian tram rail_urban rail rail_electric rail_fast ship" speed="8.33" length="7.06" shape="212242.95,452420.82 212242.65,452418.78 212242.06,452417.44 212241.48,452416.09 212241.24,452414.05"/>
    </edge>
    <edge id=":1504207551_1" function="internal">
        <lane id=":1504207551_1_0" index="0" disallow="pedestrian tram rail_urban rail rail_electric rail_fast ship" speed="7.70" length="6.12" shape="212244.44,452414.09 212244.53,452415.99 212244.85,452417.57 212245.41,452418.83 212246.20,452419.77"/>
    </edge>
    <edge id=":1504207553_0" function="internal">
        <lane id=":1504207553_0_0" index="0" disallow="pedestrian tram rail_urban rail rail_electric rail_fast ship" speed="8.33" length="8.05" shape="212246.35,452419.90 212248.11,452421.54 212249.31,452422.71 212250.66,452423.61 212252.84,452424.46"/>
    </edge>
    <edge id=":1504207553_1" function="internal">
        <lane id=":1504207553_1_0" index="0" disallow="pedestrian tram rail_urban rail rail_electric rail_fast ship" speed="8.33" length="5.96" shape="212247.04,452424.86 212248.75,452424.38 212249.96,452424.07 212251.16,452424.06 212252.84,452424.46"/>
    </edge>
    <edge id=":1504207555_0" function="internal">
        <lane id=":1504207555_0_0" index="0" disallow="pedestrian tram rail_urban rail rail_electric rail_fast ship" speed="8.33" length="8.80" shape="212257.81,452427.65 212259.58,452429.47 212261.12,452430.34 212262.92,452430.84 212265.45,452431.53"/>
    </edge>
    <edge id=":1504207555_1" function="internal">
        <lane id=":1504207555_1_0" index="0" disallow="pedestrian tram rail_urban rail rail_electric rail_fast ship" speed="7.42" length="6.82" shape="212257.81,452427.65 212259.14,452429.46 212260.00,452431.09 212260.36,452432.52 212260.23,452433.77"/>
    </edge>
    <edge id=":1504207558_0" function="internal">
        <lane id=":1504207558_0_0" index="0" disallow="pedestrian tram rail_urban rail rail_electric rail_fast ship" speed="8.33" length="6.66" shape="212247.14,452442.00 212245.52,452440.86 212244.45,452439.99 212243.62,452438.92 212242.74,452437.18"/>
    </edge>
    <edge id=":1504207558_1" function="internal">
        <lane id=":1504207558_1_0" index="0" disallow="pedestrian tram rail_urban rail rail_electric rail_fast ship" speed="8.33" length="8.66" shape="212242.50,452445.56 212243.17,452443.07 212243.62,452441.27 212243.56,452439.53 212242.74,452437.18"/>
    </edge>
    <edge id=":1504207559_0" function="internal">
        <lane id=":1504207559_0_0" index="0" disallow="pedestrian tram rail_urban rail rail_electric rail_fast ship" speed="8.33" length="8.71" shape="212254.07,452441.78 212251.78,452442.74 212250.46,452443.90 212249.47,452445.48 212248.16,452447.73"/>
    </edge>
    <edge id=":1504207559_1" function="internal">
        <lane id=":1504207559_1_0" index="0" disallow="pedestrian tram rail_urban rail rail_electric rail_fast ship" speed="7.88" length="6.96" shape="212254.07,452441.78 212251.77,452442.39 212249.87,452442.65 212248.38,452442.56 212247.30,452442.11"/>
    </edge>
    <edge id=":1507566567_0" function="internal">
        <lane id=":1507566567_0_0" index="0" disallow="pedestrian tram rail_urban rail rail_electric rail_fast ship" speed="13.89" length="8.41" shape="212079.42,451685.35 212077.19,451686.51 212076.02,451687.99 212074.84,451689.47 212072.60,451690.62"/>
        <lane id=":1507566567_0_1" index="1" disallow="pedestrian tram rail_urban rail rail_electric rail_fast ship" speed="13.89" length="8.41" shape="212079.42,451685.35 212071.73,451687.54"/>
    </edge>
    <edge id=":1507566567_2" function="internal">
        <lane id=":1507566567_2_0" index="0" disallow="pedestrian tram rail_urban rail rail_electric rail_fast ship" speed="13.89" length="8.00" shape="212070.86,451684.46 212078.54,451682.27"/>
    </edge>
    <edge id=":1507566826_0" function="internal">
        <lane id=":1507566826_0_0" index="0" disallow="pedestrian tram rail_urban rail rail_electric rail_fast ship" speed="8.33" length="0.30" shape="212147.22,453008.75 212146.99,453008.94"/>
    </edge>
    <edge id=":1507566826_1" function="internal">
        <lane id=":1507566826_1_0" index="0" disallow="pedestrian tram rail_urban rail rail_electric rail_fast ship" speed="8.33" length="0.30" shape="212144.94,453006.49 212145.17,453006.30"/>
    </edge>
    <edge id=":1509951406_0" function="internal">
        <lane id=":1509951406_0_0" index="0" disallow="pedestrian tram rail_urban rail rail_electric rail_fast ship" speed="8.33" length="8.02" shape="212197.59,452964.36 212191.76,452969.86"/>
    </edge>
    <edge id=":1509951406_1" function="internal">