<?xml version="1.0" encoding="UTF-8"?>
<routes xmlns:xsi="http://www.w3.org/2001/XMLSchema-instance" xsi:noNamespaceSchemaLocation="http://sumo.dlr.de/xsd/routes_file.xsd">
	<vType id="bus" vClass="bus" color="green"/>
	<vType id="default_017" vClass="passenger" color="red"/>
    <vType id="random_017" vClass="passenger" color="red"/>
	<vType id="default_016" vClass="passenger" color="red"/>
    <vType id="random_016" vClass="passenger" color="red"/>
	<vType id="default_015" vClass="passenger" color="red"/>
    <vType id="random_015" vClass="passenger" color="red"/>
	<vType id="default_014" vClass="passenger" color="red"/>
    <vType id="random_014" vClass="passenger" color="red"/>
	<vType id="default_013" vClass="passenger" color="red"/>
    <vType id="random_013" vClass="passenger" color="red"/>
    <vType id="default_012" vClass="passenger" color="red"/>
    <vType id="random_012" vClass="passenger" color="red"/>
	<vType id="default_011" vClass="passenger" color="red"/>
    <vType id="random_011" vClass="passenger" color="red"/>
	<vType id="default_010" vClass="passenger" color="red"/>
    <vType id="random_010" vClass="passenger" color="red"/>
	<vType id="default_009" vClass="passenger" color="red"/>
    <vType id="random_009" vClass="passenger" color="red"/>
	<vType id="default_008" vClass="passenger" color="red"/>
    <vType id="random_008" vClass="passenger" color="red"/>
	<vType id="default_007" vClass="passenger" color="red"/>
    <vType id="random_007" vClass="passenger" color="red"/>
	<vType id="default_006" vClass="passenger" color="red"/>
    <vType id="random_006" vClass="passenger" color="red"/>
	<vType id="default_005" vClass="passenger" color="red"/>
    <vType id="random_005" vClass="passenger" color="red"/>
	<vType id="default_004" vClass="passenger" color="red"/>
    <vType id="random_004" vClass="passenger" color="red"/>
	<vType id="default_003" vClass="passenger" color="red"/>
    <vType id="random_003" vClass="passenger" color="red"/>
	<vType id="default_022" vClass="passenger" color="red"/>
    <vType id="random_022" vClass="passenger" color="red"/>
	<vType id="default_021" vClass="passenger" color="red"/>
    <vType id="random_021" vClass="passenger" color="red"/>
	<vType id="default_020" vClass="passenger" color="red"/>
    <vType id="random_020" vClass="passenger" color="red"/>
	<vType id="default_019" vClass="passenger" color="red"/>
    <vType id="random_019" vClass="passenger" color="red"/>
	<vType id="default_018" vClass="passenger" color="red"/>
    <vType id="random_018" vClass="passenger" color="red"/>
	<vType id="default_002" vClass="passenger" color="red"/>
    <vType id="random_002" vClass="passenger" color="red"/>
	<vType id="default_001" vClass="passenger" color="red"/>
    <vType id="random_001" vClass="passenger" color="red"/>
	<trip id="h2831c1:1" type="default_016" depart="57600.00" from="201089423#0" to="-315358244"/>
	<trip id="carIn107084:1" type="default_016" depart="57600.30" from="124812856#0" to="-128361102#1"/>
	<trip id="carIn80064:1" type="default_016" depart="57602.60" from="128361109#1" to="-315358254#1"/>
	<trip id="randUni10474:1" type="random_016" depart="57604.80" from="124812856#0" to="306240162#0"/>
	<trip id="carIn60260:1" type="default_016" depart="57605.10" from="315358254#0" to="399835085#1"/>
	<trip id="randUni14624:1" type="random_016" depart="57605.20" from="315358244" to="-25149001#4"/>
	<trip id="carIn77943:1" type="default_016" depart="57605.50" from="124812856#0" to="-128361102#1"/>
	<trip id="carIn28951:1" type="default_016" depart="57605.80" from="10425609#0" to="-128361102#1"/>
	<trip id="carIn81046:1" type="default_016" depart="57608.50" from="124812856#0" to="-128361102#1"/>
	<trip id="h15454c2:3" type="default_016" depart="57611.50" from="24608844" to="32978638#0"/>
	<trip id="h12244c1:3" type="default_016" depart="57611.60" from="315358244" to="386687235"/>
	<trip id="S5R_frequency1.2" type="bus" depart="57611.60" from="315358250#0" to="386687235"/>
	<trip id="carIn48184:1" type="default_016" depart="57612.30" from="-306240162#1" to="386687235"/>
	<trip id="carIn77438:1" type="default_016" depart="57612.90" from="124812856#0" to="-128361102#1"/>
	<trip id="carIn22761:1" type="default_016" depart="57613.90" from="-306240162#1" to="399835085#1"/>
	<trip id="h19804c1:3" type="default_016" depart="57615.50" from="124812856#0" to="-128361102#1"/>
	<trip id="carIn82220:1" type="default_016" depart="57615.50" from="-306240162#1" to="386687235"/>
	<trip id="carIn86816:1" type="default_016" depart="57616.20" from="128361102#0" to="201956811#0"/>
	<trip id="carIn462:1" type="default_016" depart="57617.20" from="-306240162#1" to="386687235"/>
	<trip id="carIn767:1" type="default_016" depart="57618.50" from="124812856#0" to="306240162#0"/>
	<trip id="carIn107842:1" type="default_016" depart="57621.10" from="124812856#0" to="-128361102#1"/>
	<trip id="h645c1:1" type="default_016" depart="57621.60" from="266565295#5" to="-315358244"/>
	<trip id="h15382c1:3" type="default_016" depart="57622.20" from="124812856#0" to="-128361102#1"/>
	<trip id="carIn3969:1" type="default_016" depart="57623.70" from="124812856#0" to="-128361102#1"/>
	<trip id="carIn56649:1" type="default_016" depart="57623.90" from="124812856#0" to="-128361102#1"/>
	<trip id="h3688c1:1" type="default_016" depart="57625.00" from="201201950#1" to="32978638#0"/>
	<trip id="carIn38625:1" type="default_016" depart="57625.50" from="124812856#0" to="306240162#0"/>
	<trip id="carIn116184:1" type="default_016" depart="57626.90" from="-306240162#1" to="386687235"/>
	<trip id="carIn17767:1" type="default_016" depart="57627.20" from="124812856#0" to="-128361102#1"/>
	<trip id="carIn64859:1" type="default_016" depart="57628.40" from="124812856#0" to="306240162#0"/>
	<trip id="carIn31257:1" type="default_016" depart="57628.40" from="-306240162#1" to="386687235"/>
	<trip id="carIn48979:1" type="default_016" depart="57628.90" from="124812856#0" to="306240162#0"/>
	<trip id="h9563c2:5" type="default_016" depart="57630.30" from="315358244" to="386687235"/>
	<trip id="carIn88932:1" type="default_016" depart="57630.60" from="124812856#0" to="-128361102#1"/>
	<trip id="h15353c2:1" type="default_016" depart="57630.70" from="124812856#0" to="306240162#0"/>
	<trip id="h5170c2:1" type="default_016" depart="57631.00" from="201201953#4" to="-266565295#5"/>
	<trip id="carIn44740:1" type="default_016" depart="57632.30" from="124812856#0" to="-128361102#1"/>
	<trip id="randUni29093:1" type="random_016" depart="57633.00" from="124812856#0" to="201238729#3"/>
	<trip id="h20540c1:1" type="default_016" depart="57633.50" from="10425609#0" to="-128361102#1"/>
	<trip id="carIn64490:1" type="default_016" depart="57633.90" from="124812856#0" to="306240162#0"/>
	<trip id="h13311c1:3" type="default_016" depart="57635.00" from="399835085#1" to="32978638#0"/>
	<trip id="carIn13362:1" type="default_016" depart="57635.60" from="124812856#0" to="306240162#0"/>
	<trip id="carIn99385:1" type="default_016" depart="57637.10" from="124812856#0" to="-128361102#1"/>
	<trip id="carIn101568:1" type="default_016" depart="57637.50" from="-306240162#1" to="386687235"/>
	<trip id="carIn11547:1" type="default_016" depart="57637.70" from="124812856#0" to="306240162#0"/>
	<trip id="carIn53971:1" type="default_016" depart="57639.20" from="272042143" to="24634414#1"/>
	<trip id="carIn25314:1" type="default_016" depart="57640.20" from="124812856#0" to="306240162#0"/>
	<trip id="carIn23683:1" type="default_016" depart="57640.80" from="-306240162#1" to="201956820"/>
	<trip id="carIn102915:1" type="default_016" depart="57642.60" from="128361102#0" to="201956811#0"/>
	<trip id="carIn32621:1" type="default_016" depart="57643.00" from="124812856#0" to="-128361102#1"/>
	<trip id="randUni33724:1" type="random_016" depart="57644.80" from="128361102#0" to="201956811#0"/>
	<trip id="carIn96510:1" type="default_016" depart="57644.80" from="-306240162#1" to="201956820"/>
	<trip id="carIn12152:1" type="default_016" depart="57646.50" from="24599188#0.94" to="-315358254#1"/>
	<trip id="carIn121703:1" type="default_016" depart="57646.70" from="386687232#0" to="-315358244"/>
	<trip id="carIn50326:1" type="default_016" depart="57650.70" from="128361102#0" to="18809673#0"/>
	<trip id="h3568c1:3" type="default_016" depart="57655.20" from="266565295#5" to="-24634415"/>
	<trip id="h3326c1:2" type="default_016" depart="57656.00" from="22716069#0" to="24634517#13"/>
	<trip id="carIn106665:1" type="default_016" depart="57657.20" from="266565295#5" to="201238729#3"/>
	<trip id="carIn61442:1" type="default_016" depart="57657.30" from="-306240162#1" to="386687235"/>
	<trip id="h3154c1:1" type="default_016" depart="57658.00" from="24634507" to="-266565295#5"/>
	<trip id="h7181c1:1" type="default_016" depart="57659.90" from="315358254#0" to="306240162#0"/>
	<trip id="carIn12858:1" type="default_016" depart="57660.10" from="128361109#1" to="399835085#1"/>
	<trip id="h16072c2:3" type="default_016" depart="57660.50" from="315358254#0" to="386687235"/>
	<trip id="h21908c1:3" type="default_016" depart="57660.60" from="399835085#1" to="201956820"/>
	<trip id="h17600c1:1" type="default_016" depart="57661.70" from="272042143" to="201238729#3"/>
	<trip id="carIn100288:1" type="default_016" depart="57663.40" from="128361102#0" to="201956811#0"/>
	<trip id="h11737c1:1" type="default_016" depart="57663.50" from="272042143" to="-315358254#1"/>
	<trip id="h5216c1:1" type="default_016" depart="57664.00" from="224892339#0" to="386687235"/>
	<trip id="carIn29531:1" type="default_016" depart="57665.40" from="128361102#0" to="201956811#0"/>
	<trip id="carIn2912:1" type="default_016" depart="57666.90" from="128361102#0" to="201956811#0"/>
	<trip id="carIn49437:1" type="default_016" depart="57668.50" from="128361102#0" to="201956811#0"/>
	<trip id="h5979c1:5" type="default_016" depart="57669.00" from="399835085#1" to="-315358254#1"/>
	<trip id="h7097c1:1" type="default_016" depart="57669.40" from="315358242#0" to="306240162#0"/>
	<trip id="carIn85747:1" type="default_016" depart="57672.30" from="128361109#1" to="386687235"/>
	<trip id="carIn27009:1" type="default_015" depart="57672.50" from="-447569998#1" to="-26677539"/>
	<trip id="50R_frequency3.17" type="bus" depart="57673.30" from="-18809673#6" to="201956811#0"/>
	<trip id="carIn7949:1" type="default_016" depart="57673.90" from="128361109#1" to="386687235"/>
	<trip id="carIn126288:1" type="default_016" depart="57674.00" from="272042143" to="-315358254#1"/>
	<trip id="h18601c1:3" type="default_016" depart="57674.00" from="128361102#0" to="201956811#0"/>
	<trip id="carIn12775:1" type="default_016" depart="57675.40" from="10425609#0" to="18809673#0"/>
	<trip id="carIn75660:1" type="default_016" depart="57675.60" from="128361109#1" to="386687235"/>
	<trip id="h18996c2:1" type="default_016" depart="57677.10" from="128361102#0" to="201956820"/>
	<trip id="carIn48137:1" type="default_016" depart="57677.40" from="128361109#1" to="32978638#0"/>
	<trip id="carIn132618:1" type="default_016" depart="57677.60" from="-306240162#1" to="386687235"/>
	<trip id="h3864c1:3" type="default_016" depart="57678.00" from="24693977#1" to="201956820"/>
	<trip id="h8343c1:5" type="default_016" depart="57678.40" from="315358254#0" to="-24634510#5"/>
	<trip id="carIn99578:1" type="default_016" depart="57679.00" from="-306240162#1" to="201956820"/>
	<trip id="h19413c1:1" type="default_016" depart="57679.10" from="128361109#1" to="386687235"/>
	<trip id="h17549c1:1" type="default_016" depart="57680.00" from="-447569998#1" to="-315358254#1"/>
	<trip id="carIn30817:1" type="default_016" depart="57680.80" from="315358244" to="447569997#1"/>
	<trip id="carIn92047:1" type="default_016" depart="57681.80" from="-306240162#1" to="386687235"/>
	<trip id="carIn118538:1" type="default_016" depart="57682.00" from="-447569998#1" to="399835085#1"/>
	<trip id="h9953c2:3" type="default_016" depart="57682.00" from="-54169231#2" to="386687235"/>
	<trip id="carIn88905:1" type="default_016" depart="57682.20" from="128361109#1" to="386687235"/>
	<trip id="carIn46110:1" type="default_016" depart="57682.80" from="315358244" to="32978638#0"/>
	<trip id="carIn70061:1" type="default_016" depart="57683.30" from="-306240162#1" to="386687235"/>
	<trip id="carIn119432:1" type="default_016" depart="57684.70" from="-306240162#1" to="201956820"/>
	<trip id="carIn4826:1" type="default_016" depart="57686.20" from="-306240162#1" to="386687235"/>
	<trip id="carIn118591:1" type="default_016" depart="57688.80" from="315358244" to="386687235"/>
	<trip id="carIn99233:1" type="default_016" depart="57689.10" from="128361109#1" to="386687235"/>
	<trip id="h825c2:3" type="default_016" depart="57689.50" from="315358254#0" to="32978638#0"/>
	<trip id="h4388c1:3" type="default_016" depart="57691.20" from="315358254#0" to="32978638#0"/>
	<trip id="h19577c1:1" type="default_016" depart="57691.20" from="128361109#1" to="386687235"/>
	<trip id="h19505c1:1" type="default_016" depart="57692.80" from="128361109#1" to="32978638#0"/>
	<trip id="carIn4388:1" type="default_016" depart="57693.50" from="-306240162#1" to="386687235"/>
	<trip id="carIn5824:1" type="default_016" depart="57694.40" from="128361109#1" to="386687235"/>
	<trip id="h7800c1:5" type="default_016" depart="57696.00" from="-447569998#1" to="-447569998#1"/>
	<trip id="h7305c1:3" type="default_016" depart="57696.10" from="128361109#1" to="40888354#0"/>
	<trip id="h15472c1:3" type="default_016" depart="57697.00" from="-26677216#0" to="201956820"/>
	<trip id="h23116c2:5" type="default_016" depart="57697.60" from="128361102#0" to="30482615#1"/>
	<trip id="h11868c1:5" type="default_016" depart="57699.90" from="315358254#0" to="386687235"/>
	<trip id="h4538c1:1" type="default_016" depart="57701.00" from="-10427692#1" to="-128361102#1"/>
	<trip id="carIn82278:1" type="default_016" depart="57701.30" from="-306240162#1" to="399835085#1"/>
	<trip id="carIn23049:1" type="default_016" depart="57705.30" from="-306240162#1" to="386687235"/>
	<trip id="h317c2:1" type="default_016" depart="57706.90" from="-32978638#0" to="-266565295#5"/>
	<trip id="carIn60497:1" type="default_016" depart="57709.90" from="-306240162#1" to="386687235"/>
	<trip id="carIn81860:1" type="default_016" depart="57711.40" from="128361102#0" to="-24634517#17"/>
	<trip id="carIn12365:1" type="default_016" depart="57712.50" from="315358244" to="447569997#1"/>
	<trip id="carIn92532:1" type="default_016" depart="57712.50" from="266565295#5" to="18809673#0"/>
	<trip id="h16437c1:3" type="default_016" depart="57716.20" from="315358254#0" to="386687235"/>
	<trip id="carIn36761:1" type="default_016" depart="57719.50" from="-18809673#6" to="-266565295#5"/>
	<trip id="carIn99509:1" type="default_015" depart="57719.80" from="-32978638#0" to="-315358244"/>
	<trip id="carIn81681:1" type="default_016" depart="57725.70" from="272042143" to="306240162#0"/>
	<trip id="randUni3548:1" type="random_016" depart="57726.00" from="-447569998#1" to="-315358254#1"/>
	<trip id="h6541c1:3" type="default_016" depart="57727.00" from="201950247#3" to="32978638#0"/>
	<trip id="carIn129809:1" type="default_015" depart="57728.00" from="-447569998#1" to="-315358244"/>
	<trip id="carIn13443:1" type="default_016" depart="57728.20" from="272042143" to="399835085#1"/>
	<trip id="h19989c1:1" type="default_016" depart="57729.40" from="10425609#0" to="-128361102#1"/>
	<trip id="carIn75793:1" type="default_016" depart="57729.50" from="128361102#0" to="-83304175#2"/>
	<trip id="carIn80913:1" type="default_016" depart="57731.60" from="272042143" to="306240162#0"/>
	<trip id="carIn92858:1" type="default_016" depart="57732.20" from="10425609#0" to="-128361102#1"/>
	<trip id="h2483c1:1" type="default_016" depart="57733.00" from="-24634510#15" to="201956820"/>
	<trip id="carIn36351:1" type="default_016" depart="57733.90" from="-306240162#1" to="386687235"/>
	<trip id="carIn101439:1" type="default_016" depart="57734.30" from="10425609#0" to="-128361102#1"/>
	<trip id="randUni15030:1" type="random_016" depart="57734.90" from="386687232#0" to="26677539"/>
	<trip id="h330c1:1" type="default_016" depart="57735.80" from="-32978638#0" to="-266565295#5"/>
	<trip id="carIn101266:1" type="default_016" depart="57736.50" from="272042143" to="306240162#0"/>
	<trip id="carIn84229:1" type="default_016" depart="57736.80" from="10425609#0" to="-128361102#1"/>
	<trip id="h15045c2:3" type="default_016" depart="57737.30" from="315358254#0" to="32978638#0"/>
	<trip id="carIn129628:1" type="default_016" depart="57738.50" from="24599188#0.94" to="-315358254#1"/>
	<trip id="carIn132499:1" type="default_016" depart="57739.30" from="272042143" to="201238729#3"/>
	<trip id="h5938c1:1" type="default_016" depart="57740.00" from="-26677542#0" to="447569997#1"/>
	<trip id="h6846c2:1" type="default_016" depart="57741.00" from="26677213#0" to="386687235"/>
	<trip id="carIn14532:1" type="default_016" depart="57741.10" from="272042143" to="399835085#1"/>
	<trip id="h10591c1:1" type="default_016" depart="57742.40" from="266565295#5" to="18809673#0"/>
	<trip id="carIn73855:1" type="default_016" depart="57742.50" from="386687232#0" to="-315358244"/>
	<trip id="h13760c1:1" type="default_016" depart="57742.90" from="266565295#5" to="201238729#3"/>
	<trip id="carIn16842:1" type="default_016" depart="57743.60" from="10425609#0" to="18809673#0"/>
	<trip id="carIn126378:1" type="default_016" depart="57744.20" from="386687232#0" to="-315358244"/>
	<trip id="h7178c1:1" type="default_016" depart="57745.00" from="315358254#0" to="386687235"/>
	<trip id="h13810c1:3" type="default_016" depart="57747.00" from="399835085#1" to="32978638#0"/>
	<trip id="carIn107282:1" type="default_016" depart="57749.00" from="-447569998#1" to="315358242#0"/>
	<trip id="h22816c2:3" type="default_016" depart="57749.40" from="315358244" to="201956820"/>
	<trip id="carIn24735:1" type="default_016" depart="57749.70" from="266565295#5" to="201238729#3"/>
	<trip id="carIn24709:1" type="default_016" depart="57750.50" from="266565295#5" to="-24634506#2"/>
	<trip id="h8633c1:3" type="default_016" depart="57752.00" from="24634510#0" to="201956820"/>
	<trip id="carIn123877:1" type="default_016" depart="57752.50" from="-306240162#1" to="30482615#1"/>
	<trip id="carIn107484:1" type="default_016" depart="57754.00" from="-306240162#1" to="386687235"/>
	<trip id="carIn121351:1" type="default_015" depart="57754.70" from="-447569998#1" to="399835085#1"/>
	<trip id="carIn1513:1" type="default_016" depart="57755.40" from="-306240162#1" to="386687235"/>
	<trip id="carIn41392:1" type="default_016" depart="57756.80" from="-306240162#1" to="201956820"/>
	<trip id="carIn56449:1" type="default_016" depart="57757.30" from="128361102#0" to="30482615#1"/>
	<trip id="carIn117869:1" type="default_016" depart="57757.40" from="-32978638#0" to="-315358244"/>
	<trip id="carIn115169:1" type="default_016" depart="57758.50" from="24599188#0.94" to="-10427692#3"/>
	<trip id="h8468c1:3" type="default_016" depart="57760.00" from="176550249#3" to="201238729#3"/>
	<trip id="carIn125694:1" type="default_016" depart="57760.40" from="128361102#0" to="201956820"/>
	<trip id="carIn27323:1" type="default_016" depart="57760.50" from="24599188#0.94" to="-315358254#1"/>
	<trip id="carIn53503:1" type="default_016" depart="57760.60" from="-306240162#1" to="24634510#6"/>
	<trip id="carIn49359:1" type="default_016" depart="57764.50" from="128361109#1" to="386687235"/>
	<trip id="carIn82741:1" type="default_016" depart="57764.60" from="128361102#0" to="201956820"/>
	<trip id="carIn70751:1" type="default_016" depart="57766.10" from="128361109#1" to="386687235"/>
	<trip id="carIn106296:1" type="default_016" depart="57767.00" from="124812856#0" to="18809673#0"/>
	<trip id="h3536c1:1" type="default_016" depart="57767.00" from="-24634413#2" to="32978638#0"/>
	<trip id="carIn21399:1" type="default_016" depart="57767.70" from="128361109#1" to="-315358254#1"/>
	<trip id="h19249c2:1" type="default_016" depart="57768.90" from="128361102#0" to="201956820"/>
	<trip id="carIn7286:1" type="default_016" depart="57769.30" from="128361109#1" to="386687235"/>
	<trip id="carIn75964:1" type="default_016" depart="57771.20" from="128361109#1" to="386687235"/>
	<trip id="carIn48897:1" type="default_016" depart="57772.80" from="128361109#1" to="386687235"/>
	<trip id="carIn8642:1" type="default_016" depart="57773.10" from="-447569998#1" to="-315358244"/>
	<trip id="carIn104643:1" type="default_016" depart="57773.50" from="124812856#0" to="18809673#0"/>
	<trip id="h17039c2:3" type="default_016" depart="57776.40" from="315358254#0" to="386687235"/>
	<trip id="carIn90140:1" type="default_016" depart="57776.60" from="128361109#1" to="399835085#1"/>
	<trip id="h15937c1:3" type="default_016" depart="57777.10" from="128361102#0" to="201956811#0"/>
	<trip id="carIn60867:1" type="default_016" depart="57778.20" from="128361109#1" to="386687235"/>
	<trip id="carIn17428:1" type="default_016" depart="57779.80" from="-306240162#1" to="201956820"/>
	<trip id="carIn121314:1" type="default_016" depart="57779.90" from="128361109#1" to="386687235"/>
	<trip id="carIn68868:1" type="default_016" depart="57781.20" from="-306240162#1" to="386687235"/>
	<trip id="h9261c1:3" type="default_016" depart="57781.70" from="128361109#1" to="386687235"/>
	<trip id="h13540c2:3" type="default_016" depart="57781.90" from="315358244" to="32978638#0"/>
	<trip id="carIn82298:1" type="default_016" depart="57782.40" from="-447569998#1" to="-315358254#1"/>
	<trip id="carIn90208:1" type="default_016" depart="57782.50" from="-306240162#1" to="201956820"/>
	<trip id="h18522c1:1" type="default_016" depart="57783.40" from="128361109#1" to="-315358254#1"/>
	<trip id="carIn39194:1" type="default_016" depart="57783.80" from="-306240162#1" to="386687235"/>
	<trip id="carIn84877:1" type="default_016" depart="57784.00" from="-18809673#6" to="201956820"/>
	<trip id="carIn116478:1" type="default_016" depart="57785.10" from="128361109#1" to="-315358254#1"/>
	<trip id="carIn7631:1" type="default_016" depart="57785.30" from="-32978638#0" to="-315358244"/>
	<trip id="carIn19971:1" type="default_016" depart="57785.40" from="-306240162#1" to="201956820"/>
	<trip id="carIn85069:1" type="default_016" depart="57785.50" from="128361102#0" to="-83304175#2"/>
	<trip id="carIn21032:1" type="default_016" depart="57786.70" from="-306240162#1" to="386687235"/>
	<trip id="carIn96088:1" type="default_016" depart="57788.10" from="-306240162#1" to="386687235"/>
	<trip id="carIn29676:1" type="default_016" depart="57789.00" from="-160314345#5" to="-24634505"/>
	<trip id="carIn119559:1" type="default_016" depart="57789.60" from="-306240162#1" to="386687235"/>
	<trip id="carIn47165:1" type="default_016" depart="57791.10" from="-306240162#1" to="386687235"/>
	<trip id="h17890c1:3" type="default_016" depart="57792.00" from="386687232#0" to="32978638#0"/>
	<trip id="carIn66532:1" type="default_016" depart="57792.50" from="-306240162#1" to="386687235"/>
	<trip id="carIn76675:1" type="default_016" depart="57794.40" from="-160314345#5" to="-315358254#1"/>
	<trip id="h19105c2:3" type="default_016" depart="57794.40" from="10425609#0" to="-128361102#1"/>
	<trip id="carIn15314:1" type="default_016" depart="57795.60" from="128361109#1" to="386687235"/>
	<trip id="h3301c2:3" type="default_016" depart="57797.00" from="24634517#1" to="306240162#0"/>
	<trip id="h19054c1:1" type="default_016" depart="57799.30" from="-306240162#1" to="386687235"/>
	<trip id="carIn123224:1" type="default_016" depart="57800.90" from="128361109#1" to="-315358244"/>
	<trip id="carIn102242:1" type="default_016" depart="57801.10" from="315358244" to="386687235"/>
	<trip id="carIn68387:1" type="default_016" depart="57802.80" from="315358244" to="201956820"/>
	<trip id="h13377c2:3" type="default_016" depart="57803.40" from="315358244" to="447569997#1"/>
	<trip id="carIn27185:1" type="default_016" depart="57804.30" from="-306240162#1" to="386687235"/>
	<trip id="carIn9903:1" type="default_016" depart="57804.70" from="-18809673#6" to="386687235"/>
	<trip id="carIn70533:1" type="default_016" depart="57811.90" from="-447569998#1" to="-315358244"/>
	<trip id="h18243c1:3" type="default_016" depart="57812.00" from="399835085#1" to="18809673#0"/>
	<trip id="carIn43750:1" type="default_016" depart="57812.10" from="-306240162#1" to="386687235"/>
	<trip id="h1722c1:1" type="default_016" depart="57813.00" from="18813598#2" to="-315358254#1"/>
	<trip id="randUni19661:1" type="random_016" depart="57813.60" from="-306240162#1" to="272042145"/>
	<trip id="randUni31145:1" type="random_016" depart="57813.70" from="10425609#0" to="201956810"/>
	<trip id="randUni2407:1" type="random_016" depart="57819.20" from="10425609#0" to="201956810"/>
	<trip id="carIn114105:1" type="default_016" depart="57820.80" from="10425609#0" to="306240162#0"/>
	<trip id="carIn9695:1" type="default_016" depart="57821.20" from="272042143" to="-315358254#1"/>
	<trip id="carIn114651:1" type="default_016" depart="57821.40" from="-306240162#1" to="272042145"/>
	<trip id="h2859c1:1" type="default_016" depart="57821.90" from="201238726#0.117" to="386687235"/>
	<trip id="carIn116330:1" type="default_016" depart="57822.90" from="-306240162#1" to="201956820"/>
	<trip id="carIn95912:1" type="default_016" depart="57823.60" from="272042143" to="201238729#3"/>
	<trip id="carIn76994:1" type="default_016" depart="57825.20" from="272042143" to="399835085#1"/>
	<trip id="carIn72316:1" type="default_016" depart="57825.50" from="10425609#0" to="18809673#0"/>
	<trip id="randUni31946:1" type="random_016" depart="57826.00" from="22724699#7" to="201956820"/>
	<trip id="carIn129116:1" type="default_016" depart="57826.30" from="-306240162#1" to="386687235"/>
	<trip id="carIn11414:1" type="default_016" depart="57826.80" from="272042143" to="306240162#0"/>
	<trip id="randUni20153:1" type="random_016" depart="57828.40" from="272042143" to="201238729#3"/>
	<trip id="carIn56192:1" type="default_016" depart="57829.00" from="-18809673#6" to="386687235"/>
	<trip id="h24c1:1" type="default_016" depart="57829.10" from="315358254#0" to="32978638#0"/>
	<trip id="carIn42952:1" type="default_016" depart="57830.00" from="272042143" to="399835085#1"/>
	<trip id="h13194c2:1" type="default_016" depart="57831.60" from="272042143" to="306240162#0"/>
	<trip id="h5239c1:3" type="default_016" depart="57833.20" from="315358254#0" to="224892361#3"/>
	<trip id="h13496c1:1" type="default_016" depart="57833.20" from="272042143" to="399835085#1"/>
	<trip id="carIn34399:1" type="default_016" depart="57833.40" from="-306240162#1" to="386687235"/>
	<trip id="carIn6863:1" type="default_016" depart="57834.80" from="272042143" to="306240162#0"/>
	<trip id="carIn104131:1" type="default_016" depart="57834.90" from="-306240162#1" to="-315358254#1"/>
	<trip id="h8191c1:3" type="default_016" depart="57835.20" from="315358244" to="-201238724"/>
	<trip id="carIn17722:1" type="default_016" depart="57836.40" from="272042143" to="306240162#0"/>
	<trip id="carIn13353:1" type="default_016" depart="57837.70" from="-447569998#1" to="-315358244"/>
	<trip id="carIn70936:1" type="default_016" depart="57837.90" from="24599188#0.94" to="-315358254#1"/>
	<trip id="carIn89697:1" type="default_016" depart="57838.00" from="272042143" to="201238729#3"/>
	<trip id="h8222c1:5" type="default_016" depart="57838.10" from="266565295#5" to="-201238724"/>
	<trip id="carIn62536:1" type="default_016" depart="57838.90" from="-306240162#1" to="201956820"/>
	<trip id="carIn36687:1" type="default_016" depart="57839.90" from="24599188#0.94" to="-315358254#1"/>
	<trip id="carIn39729:1" type="default_016" depart="57840.00" from="128361102#0" to="201956820"/>
	<trip id="10_frequency1.43" type="bus" depart="57840.00" from="28319300#3" to="32978638#0"/>
	<trip id="carIn63848:1" type="default_016" depart="57840.20" from="-447569998#1" to="-315358244"/>
	<trip id="carIn39560:1" type="default_016" depart="57840.40" from="-306240162#1" to="201956820"/>
	<trip id="carIn127325:1" type="default_016" depart="57841.50" from="128361102#0" to="201956811#0"/>
	<trip id="carIn32833:1" type="default_016" depart="57843.60" from="24599188#0.94" to="-315358254#1"/>
	<trip id="carIn116805:1" type="default_016" depart="57844.00" from="266565295#5" to="18809673#0"/>
	<trip id="carIn20174:1" type="default_016" depart="57845.20" from="-32978638#0" to="306240162#0"/>
	<trip id="carIn103218:1" type="default_016" depart="57845.20" from="-306240162#1" to="272042145"/>
	<trip id="carIn114414:1" type="default_016" depart="57845.30" from="-18809673#6" to="-83304175#2"/>
	<trip id="carIn94927:1" type="default_016" depart="57846.60" from="-306240162#1" to="201956820"/>
	<trip id="carIn2162:1" type="default_016" depart="57846.80" from="-32978638#0" to="306240162#0"/>
	<trip id="carIn68997:1" type="default_016" depart="57848.00" from="-306240162#1" to="201956811#0"/>
	<trip id="carIn119881:1" type="default_016" depart="57848.10" from="128361109#1" to="386687235"/>
	<trip id="carIn83006:1" type="default_016" depart="57848.50" from="-32978638#0" to="201238729#3"/>
	<trip id="carIn92360:1" type="default_016" depart="57849.70" from="128361109#1" to="386687235"/>
	<trip id="carIn101921:1" type="default_016" depart="57850.10" from="-32978638#0" to="-315358244"/>
	<trip id="h2510c1:1" type="default_016" depart="57851.00" from="-24634510#15" to="201956820"/>
	<trip id="h7759c1:3" type="default_016" depart="57851.80" from="-32978638#0" to="-315358244"/>
	<trip id="carIn38599:1" type="default_016" depart="57853.00" from="128361102#0" to="201956811#0"/>
	<trip id="carIn120813:1" type="default_016" depart="57855.60" from="24599188#0.94" to="-315358254#1"/>
	<trip id="carIn64958:1" type="default_016" depart="57856.40" from="10425609#0" to="18809673#0"/>
	<trip id="carIn11138:1" type="default_016" depart="57857.20" from="315358254#0" to="-266565295#5"/>