<?xml version="1.0" encoding="UTF-8"?>

<!-- generated on 2024-07-27 22:23:23 by Eclipse SUMO netconvert Version 1.20.0
<configuration xmlns:xsi="http://www.w3.org/2001/XMLSchema-instance" xsi:noNamespaceSchemaLocation="http://sumo.dlr.de/xsd/netconvertConfiguration.xsd">

    <input>
        <node-files value="my-intersection.nod.xml"/>
        <edge-files value="my-intersection.edg.xml"/>
        <connection-files value="my-intersection.con.xml"/>
        <tllogic-files value="my-intersection.tll.xml"/>
    </input>

    <output>
        <output-file value="my-intersection-2.net.xml"/>
    </output>

    <report>
        <ignore-errors value="true"/>
    </report>

</configuration>
-->

<net version="1.20" junctionCornerDetail="5" limitTurnSpeed="5.50" xmlns:xsi="http://www.w3.org/2001/XMLSchema-instance" xsi:noNamespaceSchemaLocation="http://sumo.dlr.de/xsd/net_file.xsd">

    <location netOffset="300.00,200.00" convBoundary="0.00,0.00,600.00,400.00" origBoundary="-300.00,-200.00,300.00,200.00" projParameter="!"/>

    <edge id=":e_0" function="internal">
        <lane id=":e_0_0" index="0" speed="3.65" length="4.67" shape="600.00,198.40 601.20,199.20 601.60,200.00 601.20,200.80 600.00,201.60"/>
    </edge>
    <edge id=":n_0" function="internal">
        <lane id=":n_0_0" index="0" speed="3.65" length="4.67" shape="301.60,400.00 300.80,401.20 300.00,401.60 299.20,401.20 298.40,400.00"/>
    </edge>
    <edge id=":s_0" function="internal">
        <lane id=":s_0_0" index="0" speed="3.65" length="4.67" shape="298.40,0.00 299.20,-1.20 300.00,-1.60 300.80,-1.20 301.60,0.00"/>
    </edge>
    <edge id=":t_0" function="internal">
        <lane id=":t_0_0" index="0" speed="6.51" length="9.03" shape="288.80,216.80 288.45,214.35 287.40,212.60 285.65,211.55 283.20,211.20"/>
        <lane id=":t_0_1" index="1" speed="7.33" length="11.73" shape="288.80,216.80 288.45,212.95 287.40,210.20 285.65,208.55 283.20,208.00"/>
        <lane id=":t_0_2" index="2" speed="8.10" length="14.57" shape="288.80,216.80 288.45,211.55 287.40,207.80 285.65,205.55 283.20,204.80"/>
        <lane id=":t_0_3" index="3" speed="8.83" length="17.50" shape="288.80,216.80 288.45,210.15 287.40,205.40 285.65,202.55 283.20,201.60"/>
    </edge>
    <edge id=":t_4" function="internal">
        <lane id=":t_4_0" index="0" speed="13.89" length="33.90" shape="292.00,216.80 291.50,206.80 290.40,200.00 289.30,193.20 288.80,183.20"/>
        <lane id=":t_4_1" index="1" speed="13.89" length="33.90" shape="292.00,216.80 292.00,183.20"/>
        <lane id=":t_4_2" index="2" speed="13.89" length="33.90" shape="292.00,216.80 292.50,206.80 293.60,200.00 294.70,193.20 295.20,183.20"/>
        <lane id=":t_4_3" index="3" speed="13.89" length="33.90" shape="292.00,216.80 293.00,206.74 295.20,200.00 297.40,193.26 298.40,183.20"/>
    </edge>
    <edge id=":t_8" function="internal">
        <lane id=":t_8_0" index="0" speed="12.64" length="19.94" shape="295.20,216.80 297.43,208.67 302.95,199.47 303.48,198.90"/>
        <lane id=":t_8_1" index="1" speed="12.26" length="22.59" shape="295.20,216.80 297.34,209.17 302.72,201.07 306.36,197.72"/>
        <lane id=":t_8_2" index="2" speed="11.87" length="18.93" shape="295.20,216.80 297.32,209.67 302.67,202.67 304.80,201.04"/>
        <lane id=":t_8_3" index="3" speed="11.49" length="15.51" shape="295.20,216.80 297.32,210.28 302.67,204.36 303.24,204.00"/>
    </edge>
    <edge id=":t_12" function="internal">
        <lane id=":t_12_0" index="0" speed="6.33" length="1.62" shape="298.40,216.80 299.33,215.40"/>
        <lane id=":t_12_1" index="1" speed="5.58" length="1.62" shape="298.40,216.80 299.33,215.40"/>
        <lane id=":t_12_2" index="2" speed="4.72" length="1.62" shape="298.40,216.80 299.33,215.40"/>
        <lane id=":t_12_3" index="3" speed="3.65" length="1.62" shape="298.40,216.80 299.20,215.60"/>
    </edge>
    <edge id=":t_64" function="internal">
        <lane id=":t_64_0" index="0" speed="12.64" length="17.04" shape="303.48,198.90 309.99,191.93 316.80,188.80"/>
    </edge>
    <edge id=":t_65" function="internal">
        <lane id=":t_65_0" index="0" speed="12.26" length="12.12" shape="306.36,197.72 309.73,194.62 316.80,192.00"/>
    </edge>
    <edge id=":t_66" function="internal">
        <lane id=":t_66_0" index="0" speed="11.87" length="13.56" shape="304.80,201.04 309.68,197.32 316.80,195.20"/>
    </edge>
    <edge id=":t_67" function="internal">
        <lane id=":t_67_0" index="0" speed="11.49" length="14.86" shape="303.24,204.00 309.68,200.06 316.80,198.40"/>
    </edge>
    <edge id=":t_68" function="internal">
        <lane id=":t_68_0" index="0" speed="6.33" length="17.01" shape="299.33,215.40 301.60,212.00 304.80,210.40 308.00,212.00 311.20,216.80"/>
    </edge>
    <edge id=":t_69" function="internal">
        <lane id=":t_69_0" index="0" speed="5.58" length="12.34" shape="299.33,215.40 300.80,213.20 303.20,212.00 305.60,213.20 308.00,216.80"/>
    </edge>
    <edge id=":t_70" function="internal">
        <lane id=":t_70_0" index="0" speed="4.72" length="7.67" shape="299.33,215.40 300.00,214.40 301.60,213.60 303.20,214.40 304.80,216.80"/>
    </edge>
    <edge id=":t_71" function="internal">
        <lane id=":t_71_0" index="0" speed="3.65" length="3.23" shape="299.20,215.60 300.00,215.20 300.80,215.60 301.60,216.80"/>
    </edge>
    <edge id=":t_16" function="internal">
        <lane id=":t_16_0" index="0" speed="6.51" length="9.03" shape="316.80,211.20 314.35,211.55 312.60,212.60 311.55,214.35 311.20,216.80"/>
        <lane id=":t_16_1" index="1" speed="7.33" length="11.73" shape="316.80,211.20 312.95,211.55 310.20,212.60 308.55,214.35 308.00,216.80"/>
        <lane id=":t_16_2" index="2" speed="8.10" length="14.57" shape="316.80,211.20 311.55,211.55 307.80,212.60 305.55,214.35 304.80,216.80"/>
        <lane id=":t_16_3" index="3" speed="8.83" length="17.50" shape="316.80,211.20 310.15,211.55 305.40,212.60 302.55,214.35 301.60,216.80"/>
    </edge>
    <edge id=":t_20" function="internal">
        <lane id=":t_20_0" index="0" speed="13.89" length="33.90" shape="316.80,208.00 306.80,208.50 300.00,209.60 293.20,210.70 283.20,211.20"/>
        <lane id=":t_20_1" index="1" speed="13.89" length="33.90" shape="316.80,208.00 283.20,208.00"/>
        <lane id=":t_20_2" index="2" speed="13.89" length="33.90" shape="316.80,208.00 306.80,207.50 300.00,206.40 293.20,205.30 283.20,204.80"/>
        <lane id=":t_20_3" index="3" speed="13.89" length="33.90" shape="316.80,208.00 306.74,207.00 300.00,204.80 293.26,202.60 283.20,201.60"/>
    </edge>
    <edge id=":t_24" function="internal">
        <lane id=":t_24_0" index="0" speed="12.64" length="19.94" shape="316.80,204.80 308.68,202.57 299.47,197.05 298.90,196.52"/>
        <lane id=":t_24_1" index="1" speed="12.26" length="22.59" shape="316.80,204.80 309.18,202.66 301.07,197.28 297.72,193.64"/>
        <lane id=":t_24_2" index="2" speed="11.87" length="18.93" shape="316.80,204.80 309.68,202.68 302.67,197.33 301.04,195.20"/>
        <lane id=":t_24_3" index="3" speed="11.49" length="15.51" shape="316.80,204.80 310.28,202.68 304.36,197.33 304.00,196.76"/>
    </edge>
    <edge id=":t_28" function="internal">
        <lane id=":t_28_0" index="0" speed="6.33" length="1.62" shape="316.80,201.60 315.40,200.67"/>
        <lane id=":t_28_1" index="1" speed="5.58" length="1.62" shape="316.80,201.60 315.40,200.67"/>
        <lane id=":t_28_2" index="2" speed="4.72" length="1.62" shape="316.80,201.60 315.40,200.67"/>
        <lane id=":t_28_3" index="3" speed="3.65" length="1.62" shape="316.80,201.60 315.60,200.80"/>
    </edge>
    <edge id=":t_72" function="internal">
        <lane id=":t_72_0" index="0" speed="12.64" length="17.04" shape="298.90,196.52 291.93,190.01 288.80,183.20"/>
    </edge>
    <edge id=":t_73" function="internal">
        <lane id=":t_73_0" index="0" speed="12.26" length="12.12" shape="297.72,193.64 294.62,190.27 292.00,183.20"/>
    </edge>
    <edge id=":t_74" function="internal">
        <lane id=":t_74_0" index="0" speed="11.87" length="13.56" shape="301.04,195.20 297.32,190.33 295.20,183.20"/>
    </edge>
    <edge id=":t_75" function="internal">
        <lane id=":t_75_0" index="0" speed="11.49" length="14.86" shape="304.00,196.76 300.06,190.33 298.40,183.20"/>
    </edge>
    <edge id=":t_76" function="internal">
        <lane id=":t_76_0" index="0" speed="6.33" length="17.01" shape="315.40,200.67 312.00,198.40 310.40,195.20 312.00,192.00 316.80,188.80"/>
    </edge>
    <edge id=":t_77" function="internal">
        <lane id=":t_77_0" index="0" speed="5.58" length="12.34" shape="315.40,200.67 313.20,199.20 312.00,196.80 313.20,194.40 316.80,192.00"/>
    </edge>
    <edge id=":t_78" function="internal">
        <lane id=":t_78_0" index="0" speed="4.72" length="7.67" shape="315.40,200.67 314.40,200.00 313.60,198.40 314.40,196.80 316.80,195.20"/>
    </edge>
    <edge id=":t_79" function="internal">
        <lane id=":t_79_0" index="0" speed="3.65" length="3.23" shape="315.60,200.80 315.20,200.00 315.60,199.20 316.80,198.40"/>
    </edge>
    <edge id=":t_32" function="internal">
        <lane id=":t_32_0" index="0" speed="6.51" length="9.03" shape="311.20,183.20 311.55,185.65 312.60,187.40 314.35,188.45 316.80,188.80"/>
        <lane id=":t_32_1" index="1" speed="7.33" length="11.73" shape="311.20,183.20 311.55,187.05 312.60,189.80 314.35,191.45 316.80,192.00"/>
        <lane id=":t_32_2" index="2" speed="8.10" length="14.57" shape="311.20,183.20 311.55,188.45 312.60,192.20 314.35,194.45 316.80,195.20"/>
        <lane id=":t_32_3" index="3" speed="8.83" length="17.50" shape="311.20,183.20 311.55,189.85 312.60,194.60 314.35,197.45 316.80,198.40"/>
    </edge>
    <edge id=":t_36" function="internal">
        <lane id=":t_36_0" index="0" speed="13.89" length="33.90" shape="308.00,183.20 308.50,193.20 309.60,200.00 310.70,206.80 311.20,216.80"/>
        <lane id=":t_36_1" index="1" speed="13.89" length="33.90" shape="308.00,183.20 308.00,216.80"/>
        <lane id=":t_36_2" index="2" speed="13.89" length="33.90" shape="308.00,183.20 307.50,193.20 306.40,200.00 305.30,206.80 304.80,216.80"/>
        <lane id=":t_36_3" index="3" speed="13.89" length="33.90" shape="308.00,183.20 307.00,193.26 304.80,200.00 302.60,206.74 301.60,216.80"/>
    </edge>
    <edge id=":t_40" function="internal">
        <lane id=":t_40_0" index="0" speed="12.64" length="19.94" shape="304.80,183.20 302.57,191.33 297.05,200.53 296.52,201.10"/>
        <lane id=":t_40_1" index="1" speed="12.26" length="22.59" shape="304.80,183.20 302.66,190.83 297.28,198.93 293.64,202.28"/>
        <lane id=":t_40_2" index="2" speed="11.87" length="18.93" shape="304.80,183.20 302.68,190.33 297.33,197.33 295.20,198.96"/>
        <lane id=":t_40_3" index="3" speed="11.49" length="15.51" shape="304.80,183.20 302.68,189.72 297.33,195.64 296.76,196.00"/>
    </edge>
    <edge id=":t_44" function="internal">
        <lane id=":t_44_0" index="0" speed="6.33" length="1.62" shape="301.60,183.20 300.67,184.60"/>
        <lane id=":t_44_1" index="1" speed="5.58" length="1.62" shape="301.60,183.20 300.67,184.60"/>
        <lane id=":t_44_2" index="2" speed="4.72" length="1.62" shape="301.60,183.20 300.67,184.60"/>
        <lane id=":t_44_3" index="3" speed="3.65" length="1.62" shape="301.60,183.20 300.80,184.40"/>
    </edge>
    <edge id=":t_80" function="internal">
        <lane id=":t_80_0" index="0" speed="12.64" length="17.04" shape="296.52,201.10 290.01,208.08 283.20,211.20"/>
    </edge>
    <edge id=":t_81" function="internal">
        <lane id=":t_81_0" index="0" speed="12.26" length="12.12" shape="293.64,202.28 290.27,205.38 283.20,208.00"/>
    </edge>
    <edge id=":t_82" function="internal">
        <lane id=":t_82_0" index="0" speed="11.87" length="13.56" shape="295.20,198.96 290.32,202.68 283.20,204.80"/>
    </edge>
    <edge id=":t_83" function="internal">
        <lane id=":t_83_0" index="0" speed="11.49" length="14.86" shape="296.76,196.00 290.32,199.94 283.20,201.60"/>
    </edge>
    <edge id=":t_84" function="internal">
        <lane id=":t_84_0" index="0" speed="6.33" length="17.01" shape="300.67,184.60 298.40,188.00 295.20,189.60 292.00,188.00 288.80,183.20"/>
    </edge>
    <edge id=":t_85" function="internal">
        <lane id=":t_85_0" index="0" speed="5.58" length="12.34" shape="300.67,184.60 299.20,186.80 296.80,188.00 294.40,186.80 292.00,183.20"/>
    </edge>
    <edge id=":t_86" function="internal">
        <lane id=":t_86_0" index="0" speed="4.72" length="7.67" shape="300.67,184.60 300.00,185.60 298.40,186.40 296.80,185.60 295.20,183.20"/>
    </edge>
    <edge id=":t_87" function="internal">
        <lane id=":t_87_0" index="0" speed="3.65" length="3.23" shape="300.80,184.40 300.00,184.80 299.20,184.40 298.40,183.20"/>
    </edge>
    <edge id=":t_48" function="internal">
        <lane id=":t_48_0" index="0" speed="6.51" length="9.03" shape="283.20,188.80 285.65,188.45 287.40,187.40 288.45,185.65 288.80,183.20"/>
        <lane id=":t_48_1" index="1" speed="7.33" length="11.73" shape="283.20,188.80 287.05,188.45 289.80,187.40 291.45,185.65 292.00,183.20"/>
        <lane id=":t_48_2" index="2" speed="8.10" length="14.57" shape="283.20,188.80 288.45,188.45 292.20,187.40 294.45,185.65 295.20,183.20"/>
        <lane id=":t_48_3" index="3" speed="8.83" length="17.50" shape="283.20,188.80 289.85,188.45 294.60,187.40 297.45,185.65 298.40,183.20"/>
    </edge>
    <edge id=":t_52" function="internal">
        <lane id=":t_52_0" index="0" speed="13.89" length="33.90" shape="283.20,192.00 293.20,191.50 300.00,190.40 306.80,189.30 316.80,188.80"/>
        <lane id=":t_52_1" index="1" speed="13.89" length="33.90" shape="283.20,192.00 316.80,192.00"/>
        <lane id=":t_52_2" index="2" speed="13.89" length="33.90" shape="283.20,192.00 293.20,192.50 300.00,193.60 306.80,194.70 316.80,195.20"/>
        <lane id=":t_52_3" index="3" speed="13.89" length="33.90" shape="283.20,192.00 293.26,193.00 300.00,195.20 306.74,197.40 316.80,198.40"/>
    </edge>
    <edge id=":t_56" function="internal">
        <lane id=":t_56_0" index="0" speed="12.64" length="19.94" shape="283.20,195.20 291.32,197.43 300.53,202.95 301.10,203.48"/>
        <lane id=":t_56_1" index="1" speed="12.26" length="22.59" shape="283.20,195.20 290.82,197.34 298.93,202.72 302.28,206.36"/>
        <lane id=":t_56_2" index="2" speed="11.87" length="18.93" shape="283.20,195.20 290.32,197.32 297.33,202.67 298.96,204.80"/>
        <lane id=":t_56_3" index="3" speed="11.49" length="15.51" shape="283.20,195.20 289.72,197.32 295.64,202.67 296.00,203.24"/>
    </edge>
    <edge id=":t_60" function="internal">
        <lane id=":t_60_0" index="0" speed="6.33" length="1.62" shape="283.20,198.40 284.60,199.33"/>
        <lane id=":t_60_1" index="1" speed="5.58" length="1.62" shape="283.20,198.40 284.60,199.33"/>
        <lane id=":t_60_2" index="2" speed="4.72" length="1.62" shape="283.20,198.40 284.60,199.33"/>
        <lane id=":t_60_3" index="3" speed="3.65" length="1.62" shape="283.20,198.40 284.40,199.20"/>
    </edge>
    <edge id=":t_88" function="internal">
        <lane id=":t_88_0" index="0" speed="12.64" length="17.04" shape="301.10,203.48 308.07,209.99 311.20,216.80"/>
    </edge>
    <edge id=":t_89" function="internal">
        <lane id=":t_89_0" index="0" speed="12.26" length="12.12" shape="302.28,206.36 305.38,209.73 308.00,216.80"/>
    </edge>
    <edge id=":t_90" function="internal">
        <lane id=":t_90_0" index="0" speed="11.87" length="13.56" shape="298.96,204.80 302.68,209.67 304.80,216.80"/>
    </edge>
    <edge id=":t_91" function="internal">
        <lane id=":t_91_0" index="0" speed="11.49" length="14.86" shape="296.00,203.24 299.94,209.67 301.60,216.80"/>
    </edge>
    <edge id=":t_92" function="internal">
        <lane id=":t_92_0" index="0" speed="6.33" length="17.01" shape="284.60,199.33 288.00,201.60 289.60,204.80 288.00,208.00 283.20,211.20"/>
    </edge>
    <edge id=":t_93" function="internal">
        <lane id=":t_93_0" index="0" speed="5.58" length="12.34" shape="284.60,199.33 286.80,200.80 288.00,203.20 286.80,205.60 283.20,208.00"/>
    </edge>
    <edge id=":t_94" function="internal">
        <lane id=":t_94_0" index="0" speed="4.72" length="7.67" shape="284.60,199.33 285.60,200.00 286.40,201.60 285.60,203.20 283.20,204.80"/>
    </edge>
    <edge id=":t_95" function="internal">
        <lane id=":t_95_0" index="0" speed="3.65" length="3.23" shape="284.40,199.20 284.80,200.00 284.40,200.80 283.20,201.60"/>
    </edge>
    <edge id=":w_0" function="internal">
        <lane id=":w_0_0" index="0" speed="3.65" length="4.67" shape="0.00,201.60 -1.20,200.80 -1.60,200.00 -1.20,199.20 0.00,198.40"/>
    </edge>

    <edge id="e_t" from="e" to="t" priority="-1">
        <lane id="e_t_0" index="0" speed="13.89" length="283.20" shape="600.00,211.20 316.80,211.20"/>
        <lane id="e_t_1" index="1" speed="13.89" length="283.20" shape="600.00,208.00 316.80,208.00"/>
        <lane id="e_t_2" index="2" speed="13.89" length="283.20" shape="600.00,204.80 316.80,204.80"/>
        <lane id="e_t_3" index="3" speed="13.89" length="283.20" shape="600.00,201.60 316.80,201.60"/>
    </edge>
    <edge id="n_t" from="n" to="t" priority="-1">
        <lane id="n_t_0" index="0" speed="13.89" length="183.20" shape="288.80,400.00 288.80,216.80"/>
        <lane id="n_t_1" index="1" speed="13.89" length="183.20" shape="292.00,400.00 292.00,216.80"/>
        <lane id="n_t_2" index="2" speed="13.89" length="183.20" shape="295.20,400.00 295.20,216.80"/>
        <lane id="n_t_3" index="3" speed="13.89" length="183.20" shape="298.40,400.00 298.40,216.80"/>
    </edge>
    <edge id="s_t" from="s" to="t" priority="-1">
        <lane id="s_t_0" index="0" speed="13.89" length="183.20" shape="311.20,0.00 311.20,183.20"/>
        <lane id="s_t_1" index="1" speed="13.89" length="183.20" shape="308.00,0.00 308.00,183.20"/>
        <lane id="s_t_2" index="2" speed="13.89" length="183.20" shape="304.80,0.00 304.80,183.20"/>
        <lane id="s_t_3" index="3" speed="13.89" length="183.20" shape="301.60,0.00 301.60,183.20"/>
    </edge>
    <edge id="t_e" from="t" to="e" priority="-1">
        <lane id="t_e_0" index="0" speed="13.89" length="283.20" shape="316.80,188.80 600.00,188.80"/>
        <lane id="t_e_1" index="1" speed="13.89" length="283.20" shape="316.80,192.00 600.00,192.00"/>
        <lane id="t_e_2" index="2" speed="13.89" length="283.20" shape="316.80,195.20 600.00,195.20"/>
        <lane id="t_e_3" index="3" speed="13.89" length="283.20" shape="316.80,198.40 600.00,198.40"/>
    </edge>
    <edge id="t_n" from="t" to="n" priority="-1">
        <lane id="t_n_0" index="0" speed="13.89" length="183.20" shape="311.20,216.80 311.20,400.00"/>
        <lane id="t_n_1" index="1" speed="13.89" length="183.20" shape="308.00,216.80 308.00,400.00"/>
        <lane id="t_n_2" index="2" speed="13.89" length="183.20" shape="304.80,216.80 304.80,400.00"/>
        <lane id="t_n_3" index="3" speed="13.89" length="183.20" shape="301.60,216.80 301.60,400.00"/>
    </edge>
    <edge id="t_s" from="t" to="s" priority="-1">
        <lane id="t_s_0" index="0" speed="13.89" length="183.20" shape="288.80,183.20 288.80,0.00"/>
        <lane id="t_s_1" index="1" speed="13.89" length="183.20" shape="292.00,183.20 292.00,0.00"/>
        <lane id="t_s_2" index="2" speed="13.89" length="183.20" shape="295.20,183.20 295.20,0.00"/>
        <lane id="t_s_3" index="3" speed="13.89" length="183.20" shape="298.40,183.20 298.40,0.00"/>
    </edge>
    <edge id="t_w" from="t" to="w" priority="-1">
        <lane id="t_w_0" index="0" speed="13.89" length="283.20" shape="283.20,211.20 0.00,211.20"/>
        <lane id="t_w_1" index="1" speed="13.89" length="283.20" shape="283.20,208.00 0.00,208.00"/>
        <lane id="t_w_2" index="2" speed="13.89" length="283.20" shape="283.20,204.80 0.00,204.80"/>
        <lane id="t_w_3" index="3" speed="13.89" length="283.20" shape="283.20,201.60 0.00,201.60"/>
    </edge>
    <edge id="w_t" from="w" to="t" priority="-1">
        <lane id="w_t_0" index="0" speed="13.89" length="283.20" shape="0.00,188.80 283.20,188.80"/>
        <lane id="w_t_1" index="1" speed="13.89" length="283.20" shape="0.00,192.00 283.20,192.00"/>
        <lane id="w_t_2" index="2" speed="13.89" length="283.20" shape="0.00,195.20 283.20,195.20"/>
        <lane id="w_t_3" index="3" speed="13.89" length="283.20" shape="0.00,198.40 283.20,198.40"/>
    </edge>

    <tlLogic id="tl_1" type="static" programID="0" offset="0">
        <phase duration="43" state="GGGGGGGGggggggggrrrrrrrrrrrrrrrrGGGGGGGGggggggggrrrrrrrrrrrrrrrr"/>
        <phase duration="3"  state="yyyyyyyyggggggggrrrrrrrrrrrrrrrryyyyyyyyggggggggrrrrrrrrrrrrrrrr"/>
        <phase duration="16" state="rrrrrrrrGGGGGGGGrrrrrrrrrrrrrrrrrrrrrrrrGGGGGGGGrrrrrrrrrrrrrrrr"/>
        <phase duration="3"  state="rrrrrrrryyyyyyyyrrrrrrrrrrrrrrrrrrrrrrrryyyyyyyyrrrrrrrrrrrrrrrr"/>
        <phase duration="53" state="rrrrrrrrrrrrrrrrGGGGGGGGggggggggrrrrrrrrrrrrrrrrGGGGGGGGgggggggg"/>
        <phase duration="3"  state="rrrrrrrrrrrrrrrryyyyyyyyggggggggrrrrrrrrrrrrrrrryyyyyyyygggggggg"/>
        <phase duration="16" state="rrrrrrrrrrrrrrrrrrrrrrrrGGGGGGGGrrrrrrrrrrrrrrrrrrrrrrrrGGGGGGGG"/>
        <phase duration="3"  state="rrrrrrrrrrrrrrrrrrrrrrrryyyyyyyyrrrrrrrrrrrrrrrrrrrrrrrryyyyyyyy"/>
    </tlLogic>

    <junction id="e" type="priority" x="600.00" y="200.00" incLanes="t_e_0 t_e_1 t_e_2 t_e_3" intLanes=":e_0_0" shape="600.00,200.00 600.00,187.20 600.00,200.00">
        <request index="0" response="0" foes="0" cont="0"/>
    </junction>
    <junction id="n" type="priority" x="300.00" y="400.00" incLanes="t_n_0 t_n_1 t_n_2 t_n_3" intLanes=":n_0_0" shape="300.00,400.00 312.80,400.00 300.00,400.00">
        <request index="0" response="0" foes="0" cont="0"/>
    </junction>
    <junction id="s" type="priority" x="300.00" y="0.00" incLanes="t_s_0 t_s_1 t_s_2 t_s_3" intLanes=":s_0_0" shape="300.00,0.00 287.20,0.00 300.00,0.00">
        <request index="0" response="0" foes="0" cont="0"/>
    </junction>
    <junction id="t" type="traffic_light" x="300.00" y="200.00" incLanes="n_t_0 n_t_1 n_t_2 n_t_3 e_t_0 e_t_1 e_t_2 e_t_3 s_t_0 s_t_1 s_t_2 s_t_3 w_t_0 w_t_1 w_t_2 w_t_3" intLanes=":t_0_0 :t_0_1 :t_0_2 :t_0_3 :t_4_0 :t_4_1 :t_4_2 :t_4_3 :t_64_0 :t_65_0 :t_66_0 :t_67_0 :t_68_0 :t_69_0 :t_70_0 :t_71_0 :t_16_0 :t_16_1 :t_16_2 :t_16_3 :t_20_0 :t_20_1 :t_20_2 :t_20_3 :t_72_0 :t_73_0 :t_74_0 :t_75_0 :t_76_0 :t_77_0 :t_78_0 :t_79_0 :t_32_0 :t_32_1 :t_32_2 :t_32_3 :t_36_0 :t_36_1 :t_36_2 :t_36_3 :t_80_0 :t_81_0 :t_82_0 :t_83_0 :t_84_0 :t_85_0 :t_86_0 :t_87_0 :t_48_0 :t_48_1 :t_48_2 :t_48_3 :t_52_0 :t_52_1 :t_52_2 :t_52_3 :t_88_0 :t_89_0 :t_90_0 :t_91_0 :t_92_0 :t_93_0 :t_94_0 :t_95_0" shape="287.20,216.80 312.80,216.80 313.24,214.58 313.80,213.80 314.58,213.24 315.58,212.91 316.80,212.80 316.80,187.20 314.58,186.76 313.80,186.20 313.24,185.42 312.91,184.42 312.80,183.20 287.20,183.20 286.76,185.42 286.20,186.20 285.42,186.76 284.42,187.09 283.20,187.20 283.20,212.80 285.42,213.24 286.20,213.80 286.76,214.58 287.09,215.58">
        <request index="0"  response="0000000000000000000000000000000000000000000000000000000000000000" foes="1111000000000000000011110000000000000000111100000000000000000000" cont="0"/>
        <request index="1"  response="0000000000000000000000000000000000000000000000000000000000000000" foes="1111000000000000000011110000000000000000111100000000000000000000" cont="0"/>
        <request index="2"  response="0000000000000000000000000000000000000000000000000000000000000000" foes="1111000000000000000011110000000000000000111100000000000000000000" cont="0"/>
        <request index="3"  response="0000000000000000000000000000000000000000000000000000000000000000" foes="1111000000000000000011110000000000000000111100000000000000000000" cont="0"/>
        <request index="4"  response="0000111100000000000000000000000000001111000000000000000000000000" foes="0000111111111111111111110000000000001111111100000000000000000000" cont="0"/>
        <request index="5"  response="0000111100000000000000000000000000001111000000000000000000000000" foes="0000111111111111111111110000000000001111111100000000000000000000" cont="0"/>
        <request index="6"  response="0000111100000000000000000000000000001111000000000000000000000000" foes="0000111111111111111111110000000000001111111100000000000000000000" cont="0"/>
        <request index="7"  response="0000111100000000000000000000000000001111000000000000000000000000" foes="0000111111111111111111110000000000001111111100000000000000000000" cont="0"/>
        <request index="8"  response="0000111100000000000000001111111100001111000000000000000000000000" foes="0000111111110000000000001111111111111111111100000000000000000000" cont="1"/>
        <request index="9"  response="0000111100000000000000001111111100001111000000000000000000000000" foes="0000111111110000000000001111111111111111111100000000000000000000" cont="1"/>
        <request index="10" response="0000111100000000000000001111111100001111000000000000000000000000" foes="0000111111110000000000001111111111111111111100000000000000000000" cont="1"/>
        <request index="11" response="0000111100000000000000001111111100001111000000000000000000000000" foes="0000111111110000000000001111111111111111111100000000000000000000" cont="1"/>
        <request index="12" response="0000111100000000000000001111000000000000000011110000000000000000" foes="0000111100000000000000001111000000000000000011110000000000000000" cont="1"/>
        <request index="13" response="0000111100000000000000001111000000000000000011110000000000000000" foes="0000111100000000000000001111000000000000000011110000000000000000" cont="1"/>
        <request index="14" response="0000111100000000000000001111000000000000000011110000000000000000" foes="0000111100000000000000001111000000000000000011110000000000000000" cont="1"/>
        <request index="15" response="0000111100000000000000001111000000000000000011110000000000000000" foes="0000111100000000000000001111000000000000000011110000000000000000" cont="1"/>
        <request index="16" response="0000000000000000000000001111000000000000000000000000000000000000" foes="0000111100000000000000001111000000000000000000001111000000000000" cont="0"/>
        <request index="17" response="0000000000000000000000001111000000000000000000000000000000000000" foes="0000111100000000000000001111000000000000000000001111000000000000" cont="0"/>
        <request index="18" response="0000000000000000000000001111000000000000000000000000000000000000" foes="0000111100000000000000001111000000000000000000001111000000000000" cont="0"/>
        <request index="19" response="0000000000000000000000001111000000000000000000000000000000000000" foes="0000111100000000000000001111000000000000000000001111000000000000" cont="0"/>
        <request index="20" response="0000000000000000000011111111000000000000000000000000111111111111" foes="1111111100000000000011111111000000000000000000000000111111111111" cont="0"/>
        <request index="21" response="0000000000000000000011111111000000000000000000000000111111111111" foes="1111111100000000000011111111000000000000000000000000111111111111" cont="0"/>
        <request index="22" response="0000000000000000000011111111000000000000000000000000111111111111" foes="1111111100000000000011111111000000000000000000000000111111111111" cont="0"/>
        <request index="23" response="0000000000000000000011111111000000000000000000000000111111111111" foes="1111111100000000000011111111000000000000000000000000111111111111" cont="0"/>
        <request index="24" response="0000000011111111000011111111000000000000000000000000111111110000" foes="0000000011111111111111111111000000000000000000000000111111110000" cont="1"/>
        <request index="25" response="0000000011111111000011111111000000000000000000000000111111110000" foes="0000000011111111111111111111000000000000000000000000111111110000" cont="1"/>
        <request index="26" response="0000000011111111000011111111000000000000000000000000111111110000" foes="0000000011111111111111111111000000000000000000000000111111110000" cont="1"/>
        <request index="27" response="0000000011111111000011111111000000000000000000000000111111110000" foes="0000000011111111111111111111000000000000000000000000111111110000" cont="1"/>
        <request index="28" response="0000000011110000000000000000111100000000000000000000111100000000" foes="0000000011110000000000000000111100000000000000000000111100000000" cont="1"/>
        <request index="29" response="0000000011110000000000000000111100000000000000000000111100000000" foes="0000000011110000000000000000111100000000000000000000111100000000" cont="1"/>
        <request index="30" response="0000000011110000000000000000111100000000000000000000111100000000" foes="0000000011110000000000000000111100000000000000000000111100000000" cont="1"/>
        <request index="31" response="0000000011110000000000000000111100000000000000000000111100000000" foes="0000000011110000000000000000111100000000000000000000111100000000" cont="1"/>
        <request index="32" response="0000000000000000000000000000000000000000000000000000000000000000" foes="0000000011110000000000000000000011110000000000000000111100000000" cont="0"/>
        <request index="33" response="0000000000000000000000000000000000000000000000000000000000000000" foes="0000000011110000000000000000000011110000000000000000111100000000" cont="0"/>
        <request index="34" response="0000000000000000000000000000000000000000000000000000000000000000" foes="0000000011110000000000000000000011110000000000000000111100000000" cont="0"/>
        <request index="35" response="0000000000000000000000000000000000000000000000000000000000000000" foes="0000000011110000000000000000000011110000000000000000111100000000" cont="0"/>