<?xml version="1.0" encoding="UTF-8"?>

<!-- generated on 2024-06-13 10:39:22 by Eclipse SUMO netconvert Version 1.20.0
<configuration xmlns:xsi="http://www.w3.org/2001/XMLSchema-instance" xsi:noNamespaceSchemaLocation="http://sumo.dlr.de/xsd/netconvertConfiguration.xsd">

    <input>
        <node-files value="my-intersection.nod.xml"/>
        <edge-files value="my-intersection.edg.xml"/>
        <connection-files value="my-intersection.con.xml"/>
        <tllogic-files value="my-intersection.tll.xml"/>
    </input>

    <output>
        <output-file value="my-intersection.net.xml"/>
    </output>

    <report>
        <ignore-errors value="true"/>
    </report>

</configuration>
-->

<net version="1.20" junctionCornerDetail="5" limitTurnSpeed="5.50" xmlns:xsi="http://www.w3.org/2001/XMLSchema-instance" xsi:noNamespaceSchemaLocation="http://sumo.dlr.de/xsd/net_file.xsd">

    <location netOffset="150.00,150.00" convBoundary="0.00,0.00,300.00,300.00" origBoundary="-150.00,-150.00,150.00,150.00" projParameter="!"/>

    <edge id=":e_0" function="internal">
        <lane id=":e_0_0" index="0" speed="3.65" length="4.67" shape="300.00,148.40 301.20,149.20 301.60,150.00 301.20,150.80 300.00,151.60"/>
    </edge>
    <edge id=":n_0" function="internal">
        <lane id=":n_0_0" index="0" speed="3.65" length="4.67" shape="151.60,300.00 150.80,301.20 150.00,301.60 149.20,301.20 148.40,300.00"/>
    </edge>
    <edge id=":s_0" function="internal">
        <lane id=":s_0_0" index="0" speed="3.65" length="4.67" shape="148.40,0.00 149.20,-1.20 150.00,-1.60 150.80,-1.20 151.60,0.00"/>
    </edge>
    <edge id=":t_0" function="internal">
        <lane id=":t_0_0" index="0" speed="6.51" length="9.03" shape="138.80,166.80 138.45,164.35 137.40,162.60 135.65,161.55 133.20,161.20"/>
        <lane id=":t_0_1" index="1" speed="7.33" length="11.73" shape="138.80,166.80 138.45,162.95 137.40,160.20 135.65,158.55 133.20,158.00"/>
        <lane id=":t_0_2" index="2" speed="8.10" length="14.57" shape="138.80,166.80 138.45,161.55 137.40,157.80 135.65,155.55 133.20,154.80"/>
        <lane id=":t_0_3" index="3" speed="8.83" length="17.50" shape="138.80,166.80 138.45,160.15 137.40,155.40 135.65,152.55 133.20,151.60"/>
    </edge>
    <edge id=":t_4" function="internal">
        <lane id=":t_4_0" index="0" speed="13.89" length="33.90" shape="142.00,166.80 141.50,156.80 140.40,150.00 139.30,143.20 138.80,133.20"/>
        <lane id=":t_4_1" index="1" speed="13.89" length="33.90" shape="142.00,166.80 142.00,133.20"/>
        <lane id=":t_4_2" index="2" speed="13.89" length="33.90" shape="142.00,166.80 142.50,156.80 143.60,150.00 144.70,143.20 145.20,133.20"/>
        <lane id=":t_4_3" index="3" speed="13.89" length="33.90" shape="142.00,166.80 143.00,156.74 145.20,150.00 147.40,143.26 148.40,133.20"/>
    </edge>
    <edge id=":t_8" function="internal">
        <lane id=":t_8_0" index="0" speed="12.64" length="19.94" shape="145.20,166.80 147.43,158.67 152.95,149.47 153.48,148.90"/>
        <lane id=":t_8_1" index="1" speed="12.26" length="22.59" shape="145.20,166.80 147.34,159.17 152.72,151.07 156.36,147.72"/>
        <lane id=":t_8_2" index="2" speed="11.87" length="18.93" shape="145.20,166.80 147.32,159.67 152.67,152.67 154.80,151.04"/>
        <lane id=":t_8_3" index="3" speed="11.49" length="15.51" shape="145.20,166.80 147.32,160.28 152.67,154.36 153.24,154.00"/>
    </edge>
    <edge id=":t_12" function="internal">
        <lane id=":t_12_0" index="0" speed="6.33" length="1.62" shape="148.40,166.80 149.33,165.40"/>
        <lane id=":t_12_1" index="1" speed="5.58" length="1.62" shape="148.40,166.80 149.33,165.40"/>
        <lane id=":t_12_2" index="2" speed="4.72" length="1.62" shape="148.40,166.80 149.33,165.40"/>
        <lane id=":t_12_3" index="3" speed="3.65" length="1.62" shape="148.40,166.80 149.20,165.60"/>
    </edge>
    <edge id=":t_64" function="internal">
        <lane id=":t_64_0" index="0" speed="12.64" length="17.04" shape="153.48,148.90 159.99,141.93 166.80,138.80"/>
    </edge>
    <edge id=":t_65" function="internal">
        <lane id=":t_65_0" index="0" speed="12.26" length="12.12" shape="156.36,147.72 159.73,144.62 166.80,142.00"/>
    </edge>
    <edge id=":t_66" function="internal">
        <lane id=":t_66_0" index="0" speed="11.87" length="13.56" shape="154.80,151.04 159.67,147.32 166.80,145.20"/>
    </edge>
    <edge id=":t_67" function="internal">
        <lane id=":t_67_0" index="0" speed="11.49" length="14.86" shape="153.24,154.00 159.67,150.06 166.80,148.40"/>
    </edge>
    <edge id=":t_68" function="internal">
        <lane id=":t_68_0" index="0" speed="6.33" length="17.01" shape="149.33,165.40 151.60,162.00 154.80,160.40 158.00,162.00 161.20,166.80"/>
    </edge>
    <edge id=":t_69" function="internal">
        <lane id=":t_69_0" index="0" speed="5.58" length="12.34" shape="149.33,165.40 150.80,163.20 153.20,162.00 155.60,163.20 158.00,166.80"/>
    </edge>
    <edge id=":t_70" function="internal">
        <lane id=":t_70_0" index="0" speed="4.72" length="7.67" shape="149.33,165.40 150.00,164.40 151.60,163.60 153.20,164.40 154.80,166.80"/>
    </edge>
    <edge id=":t_71" function="internal">
        <lane id=":t_71_0" index="0" speed="3.65" length="3.23" shape="149.20,165.60 150.00,165.20 150.80,165.60 151.60,166.80"/>
    </edge>
    <edge id=":t_16" function="internal">
        <lane id=":t_16_0" index="0" speed="6.51" length="9.03" shape="166.80,161.20 164.35,161.55 162.60,162.60 161.55,164.35 161.20,166.80"/>
        <lane id=":t_16_1" index="1" speed="7.33" length="11.73" shape="166.80,161.20 162.95,161.55 160.20,162.60 158.55,164.35 158.00,166.80"/>
        <lane id=":t_16_2" index="2" speed="8.10" length="14.57" shape="166.80,161.20 161.55,161.55 157.80,162.60 155.55,164.35 154.80,166.80"/>
        <lane id=":t_16_3" index="3" speed="8.83" length="17.50" shape="166.80,161.20 160.15,161.55 155.40,162.60 152.55,164.35 151.60,166.80"/>
    </edge>
    <edge id=":t_20" function="internal">
        <lane id=":t_20_0" index="0" speed="13.89" length="33.90" shape="166.80,158.00 156.80,158.50 150.00,159.60 143.20,160.70 133.20,161.20"/>
        <lane id=":t_20_1" index="1" speed="13.89" length="33.90" shape="166.80,158.00 133.20,158.00"/>
        <lane id=":t_20_2" index="2" speed="13.89" length="33.90" shape="166.80,158.00 156.80,157.50 150.00,156.40 143.20,155.30 133.20,154.80"/>
        <lane id=":t_20_3" index="3" speed="13.89" length="33.90" shape="166.80,158.00 156.74,157.00 150.00,154.80 143.26,152.60 133.20,151.60"/>
    </edge>
    <edge id=":t_24" function="internal">
        <lane id=":t_24_0" index="0" speed="12.64" length="19.94" shape="166.80,154.80 158.67,152.57 149.47,147.05 148.90,146.52"/>
        <lane id=":t_24_1" index="1" speed="12.26" length="22.59" shape="166.80,154.80 159.17,152.66 151.07,147.28 147.72,143.64"/>
        <lane id=":t_24_2" index="2" speed="11.87" length="18.93" shape="166.80,154.80 159.67,152.68 152.67,147.33 151.04,145.20"/>
        <lane id=":t_24_3" index="3" speed="11.49" length="15.51" shape="166.80,154.80 160.28,152.68 154.36,147.33 154.00,146.76"/>
    </edge>
    <edge id=":t_28" function="internal">
        <lane id=":t_28_0" index="0" speed="6.33" length="1.62" shape="166.80,151.60 165.40,150.67"/>
        <lane id=":t_28_1" index="1" speed="5.58" length="1.62" shape="166.80,151.60 165.40,150.67"/>
        <lane id=":t_28_2" index="2" speed="4.72" length="1.62" shape="166.80,151.60 165.40,150.67"/>
        <lane id=":t_28_3" index="3" speed="3.65" length="1.62" shape="166.80,151.60 165.60,150.80"/>
    </edge>
    <edge id=":t_72" function="internal">
        <lane id=":t_72_0" index="0" speed="12.64" length="17.04" shape="148.90,146.52 141.93,140.01 138.80,133.20"/>
    </edge>
    <edge id=":t_73" function="internal">
        <lane id=":t_73_0" index="0" speed="12.26" length="12.12" shape="147.72,143.64 144.62,140.27 142.00,133.20"/>
    </edge>
    <edge id=":t_74" function="internal">
        <lane id=":t_74_0" index="0" speed="11.87" length="13.56" shape="151.04,145.20 147.32,140.33 145.20,133.20"/>
    </edge>
    <edge id=":t_75" function="internal">
        <lane id=":t_75_0" index="0" speed="11.49" length="14.86" shape="154.00,146.76 150.06,140.33 148.40,133.20"/>
    </edge>
    <edge id=":t_76" function="internal">
        <lane id=":t_76_0" index="0" speed="6.33" length="17.01" shape="165.40,150.67 162.00,148.40 160.40,145.20 162.00,142.00 166.80,138.80"/>
    </edge>
    <edge id=":t_77" function="internal">
        <lane id=":t_77_0" index="0" speed="5.58" length="12.34" shape="165.40,150.67 163.20,149.20 162.00,146.80 163.20,144.40 166.80,142.00"/>
    </edge>
    <edge id=":t_78" function="internal">
        <lane id=":t_78_0" index="0" speed="4.72" length="7.67" shape="165.40,150.67 164.40,150.00 163.60,148.40 164.40,146.80 166.80,145.20"/>
    </edge>
    <edge id=":t_79" function="internal">
        <lane id=":t_79_0" index="0" speed="3.65" length="3.23" shape="165.60,150.80 165.20,150.00 165.60,149.20 166.80,148.40"/>
    </edge>
    <edge id=":t_32" function="internal">
        <lane id=":t_32_0" index="0" speed="6.51" length="9.03" shape="161.20,133.20 161.55,135.65 162.60,137.40 164.35,138.45 166.80,138.80"/>
        <lane id=":t_32_1" index="1" speed="7.33" length="11.73" shape="161.20,133.20 161.55,137.05 162.60,139.80 164.35,141.45 166.80,142.00"/>
        <lane id=":t_32_2" index="2" speed="8.10" length="14.57" shape="161.20,133.20 161.55,138.45 162.60,142.20 164.35,144.45 166.80,145.20"/>
        <lane id=":t_32_3" index="3" speed="8.83" length="17.50" shape="161.20,133.20 161.55,139.85 162.60,144.60 164.35,147.45 166.80,148.40"/>
    </edge>
    <edge id=":t_36" function="internal">
        <lane id=":t_36_0" index="0" speed="13.89" length="33.90" shape="158.00,133.20 158.50,143.20 159.60,150.00 160.70,156.80 161.20,166.80"/>
        <lane id=":t_36_1" index="1" speed="13.89" length="33.90" shape="158.00,133.20 158.00,166.80"/>
        <lane id=":t_36_2" index="2" speed="13.89" length="33.90" shape="158.00,133.20 157.50,143.20 156.40,150.00 155.30,156.80 154.80,166.80"/>
        <lane id=":t_36_3" index="3" speed="13.89" length="33.90" shape="158.00,133.20 157.00,143.26 154.80,150.00 152.60,156.74 151.60,166.80"/>
    </edge>
    <edge id=":t_40" function="internal">
        <lane id=":t_40_0" index="0" speed="12.64" length="19.94" shape="154.80,133.20 152.57,141.33 147.05,150.53 146.52,151.10"/>
        <lane id=":t_40_1" index="1" speed="12.26" length="22.59" shape="154.80,133.20 152.66,140.83 147.28,148.93 143.64,152.28"/>
        <lane id=":t_40_2" index="2" speed="11.87" length="18.93" shape="154.80,133.20 152.68,140.33 147.33,147.33 145.20,148.96"/>
        <lane id=":t_40_3" index="3" speed="11.49" length="15.51" shape="154.80,133.20 152.68,139.72 147.33,145.64 146.76,146.00"/>
    </edge>
    <edge id=":t_44" function="internal">
        <lane id=":t_44_0" index="0" speed="6.33" length="1.62" shape="151.60,133.20 150.67,134.60"/>
        <lane id=":t_44_1" index="1" speed="5.58" length="1.62" shape="151.60,133.20 150.67,134.60"/>
        <lane id=":t_44_2" index="2" speed="4.72" length="1.62" shape="151.60,133.20 150.67,134.60"/>
        <lane id=":t_44_3" index="3" speed="3.65" length="1.62" shape="151.60,133.20 150.80,134.40"/>
    </edge>
    <edge id=":t_80" function="internal">
        <lane id=":t_80_0" index="0" speed="12.64" length="17.04" shape="146.52,151.10 140.01,158.07 133.20,161.20"/>
    </edge>
    <edge id=":t_81" function="internal">
        <lane id=":t_81_0" index="0" speed="12.26" length="12.12" shape="143.64,152.28 140.27,155.38 133.20,158.00"/>
    </edge>
    <edge id=":t_82" function="internal">
        <lane id=":t_82_0" index="0" speed="11.87" length="13.56" shape="145.20,148.96 140.33,152.68 133.20,154.80"/>
    </edge>
    <edge id=":t_83" function="internal">
        <lane id=":t_83_0" index="0" speed="11.49" length="14.86" shape="146.76,146.00 140.33,149.94 133.20,151.60"/>
    </edge>
    <edge id=":t_84" function="internal">
        <lane id=":t_84_0" index="0" speed="6.33" length="17.01" shape="150.67,134.60 148.40,138.00 145.20,139.60 142.00,138.00 138.80,133.20"/>
    </edge>
    <edge id=":t_85" function="internal">
        <lane id=":t_85_0" index="0" speed="5.58" length="12.34" shape="150.67,134.60 149.20,136.80 146.80,138.00 144.40,136.80 142.00,133.20"/>
    </edge>
    <edge id=":t_86" function="internal">
        <lane id=":t_86_0" index="0" speed="4.72" length="7.67" shape="150.67,134.60 150.00,135.60 148.40,136.40 146.80,135.60 145.20,133.20"/>
    </edge>
    <edge id=":t_87" function="internal">
        <lane id=":t_87_0" index="0" speed="3.65" length="3.23" shape="150.80,134.40 150.00,134.80 149.20,134.40 148.40,133.20"/>
    </edge>
    <edge id=":t_48" function="internal">
        <lane id=":t_48_0" index="0" speed="6.51" length="9.03" shape="133.20,138.80 135.65,138.45 137.40,137.40 138.45,135.65 138.80,133.20"/>
        <lane id=":t_48_1" index="1" speed="7.33" length="11.73" shape="133.20,138.80 137.05,138.45 139.80,137.40 141.45,135.65 142.00,133.20"/>
        <lane id=":t_48_2" index="2" speed="8.10" length="14.57" shape="133.20,138.80 138.45,138.45 142.20,137.40 144.45,135.65 145.20,133.20"/>
        <lane id=":t_48_3" index="3" speed="8.83" length="17.50" shape="133.20,138.80 139.85,138.45 144.60,137.40 147.45,135.65 148.40,133.20"/>
    </edge>
    <edge id=":t_52" function="internal">
        <lane id=":t_52_0" index="0" speed="13.89" length="33.90" shape="133.20,142.00 143.20,141.50 150.00,140.40 156.80,139.30 166.80,138.80"/>
        <lane id=":t_52_1" index="1" speed="13.89" length="33.90" shape="133.20,142.00 166.80,142.00"/>
        <lane id=":t_52_2" index="2" speed="13.89" length="33.90" shape="133.20,142.00 143.20,142.50 150.00,143.60 156.80,144.70 166.80,145.20"/>
        <lane id=":t_52_3" index="3" speed="13.89" length="33.90" shape="133.20,142.00 143.26,143.00 150.00,145.20 156.74,147.40 166.80,148.40"/>
    </edge>
    <edge id=":t_56" function="internal">
        <lane id=":t_56_0" index="0" speed="12.64" length="19.94" shape="133.20,145.20 141.33,147.43 150.53,152.95 151.10,153.48"/>
        <lane id=":t_56_1" index="1" speed="12.26" length="22.59" shape="133.20,145.20 140.83,147.34 148.93,152.72 152.28,156.36"/>
        <lane id=":t_56_2" index="2" speed="11.87" length="18.93" shape="133.20,145.20 140.33,147.32 147.33,152.67 148.96,154.80"/>
        <lane id=":t_56_3" index="3" speed="11.49" length="15.51" shape="133.20,145.20 139.72,147.32 145.64,152.67 146.00,153.24"/>
    </edge>
    <edge id=":t_60" function="internal">
        <lane id=":t_60_0" index="0" speed="6.33" length="1.62" shape="133.20,148.40 134.60,149.33"/>
        <lane id=":t_60_1" index="1" speed="5.58" length="1.62" shape="133.20,148.40 134.60,149.33"/>
        <lane id=":t_60_2" index="2" speed="4.72" length="1.62" shape="133.20,148.40 134.60,149.33"/>
        <lane id=":t_60_3" index="3" speed="3.65" length="1.62" shape="133.20,148.40 134.40,149.20"/>
    </edge>
    <edge id=":t_88" function="internal">
        <lane id=":t_88_0" index="0" speed="12.64" length="17.04" shape="151.10,153.48 158.07,159.99 161.20,166.80"/>
    </edge>
    <edge id=":t_89" function="internal">
        <lane id=":t_89_0" index="0" speed="12.26" length="12.12" shape="152.28,156.36 155.38,159.73 158.00,166.80"/>
    </edge>
    <edge id=":t_90" function="internal">
        <lane id=":t_90_0" index="0" speed="11.87" length="13.56" shape="148.96,154.80 152.68,159.67 154.80,166.80"/>
    </edge>
    <edge id=":t_91" function="internal">
        <lane id=":t_91_0" index="0" speed="11.49" length="14.86" shape="146.00,153.24 149.94,159.67 151.60,166.80"/>
    </edge>
    <edge id=":t_92" function="internal">
        <lane id=":t_92_0" index="0" speed="6.33" length="17.01" shape="134.60,149.33 138.00,151.60 139.60,154.80 138.00,158.00 133.20,161.20"/>
    </edge>
    <edge id=":t_93" function="internal">
        <lane id=":t_93_0" index="0" speed="5.58" length="12.34" shape="134.60,149.33 136.80,150.80 138.00,153.20 136.80,155.60 133.20,158.00"/>
    </edge>
    <edge id=":t_94" function="internal">
        <lane id=":t_94_0" index="0" speed="4.72" length="7.67" shape="134.60,149.33 135.60,150.00 136.40,151.60 135.60,153.20 133.20,154.80"/>
    </edge>
    <edge id=":t_95" function="internal">
        <lane id=":t_95_0" index="0" speed="3.65" length="3.23" shape="134.40,149.20 134.80,150.00 134.40,150.80 133.20,151.60"/>
    </edge>
    <edge id=":w_0" function="internal">
        <lane id=":w_0_0" index="0" speed="3.65" length="4.67" shape="0.00,151.60 -1.20,150.80 -1.60,150.00 -1.20,149.20 0.00,148.40"/>
    </edge>

    <edge id="e_t" from="e" to="t" priority="-1">
        <lane id="e_t_0" index="0" speed="13.89" length="133.20" shape="300.00,161.20 166.80,161.20"/>
        <lane id="e_t_1" index="1" speed="13.89" length="133.20" shape="300.00,158.00 166.80,158.00"/>
        <lane id="e_t_2" index="2" speed="13.89" length="133.20" shape="300.00,154.80 166.80,154.80"/>
        <lane id="e_t_3" index="3" speed="13.89" length="133.20" shape="300.00,151.60 166.80,151.60"/>
    </edge>
    <edge id="n_t" from="n" to="t" priority="-1">
        <lane id="n_t_0" index="0" speed="13.89" length="133.20" shape="138.80,300.00 138.80,166.80"/>
        <lane id="n_t_1" index="1" speed="13.89" length="133.20" shape="142.00,300.00 142.00,166.80"/>
        <lane id="n_t_2" index="2" speed="13.89" length="133.20" shape="145.20,300.00 145.20,166.80"/>
        <lane id="n_t_3" index="3" speed="13.89" length="133.20" shape="148.40,300.00 148.40,166.80"/>
    </edge>
    <edge id="s_t" from="s" to="t" priority="-1">
        <lane id="s_t_0" index="0" speed="13.89" length="133.20" shape="161.20,0.00 161.20,133.20"/>
        <lane id="s_t_1" index="1" speed="13.89" length="133.20" shape="158.00,0.00 158.00,133.20"/>
        <lane id="s_t_2" index="2" speed="13.89" length="133.20" shape="154.80,0.00 154.80,133.20"/>
        <lane id="s_t_3" index="3" speed="13.89" length="133.20" shape="151.60,0.00 151.60,133.20"/>
    </edge>
    <edge id="t_e" from="t" to="e" priority="-1">
        <lane id="t_e_0" index="0" speed="13.89" length="133.20" shape="166.80,138.80 300.00,138.80"/>
        <lane id="t_e_1" index="1" speed="13.89" length="133.20" shape="166.80,142.00 300.00,142.00"/>
        <lane id="t_e_2" index="2" speed="13.89" length="133.20" shape="166.80,145.20 300.00,145.20"/>
        <lane id="t_e_3" index="3" speed="13.89" length="133.20" shape="166.80,148.40 300.00,148.40"/>
    </edge>
    <edge id="t_n" from="t" to="n" priority="-1">
        <lane id="t_n_0" index="0" speed="13.89" length="133.20" shape="161.20,166.80 161.20,300.00"/>
        <lane id="t_n_1" index="1" speed="13.89" length="133.20" shape="158.00,166.80 158.00,300.00"/>
        <lane id="t_n_2" index="2" speed="13.89" length="133.20" shape="154.80,166.80 154.80,300.00"/>
        <lane id="t_n_3" index="3" speed="13.89" length="133.20" shape="151.60,166.80 151.60,300.00"/>
    </edge>
    <edge id="t_s" from="t" to="s" priority="-1">
        <lane id="t_s_0" index="0" speed="13.89" length="133.20" shape="138.80,133.20 138.80,0.00"/>
        <lane id="t_s_1" index="1" speed="13.89" length="133.20" shape="142.00,133.20 142.00,0.00"/>
        <lane id="t_s_2" index="2" speed="13.89" length="133.20" shape="145.20,133.20 145.20,0.00"/>
        <lane id="t_s_3" index="3" speed="13.89" length="133.20" shape="148.40,133.20 148.40,0.00"/>
    </edge>
    <edge id="t_w" from="t" to="w" priority="-1">
        <lane id="t_w_0" index="0" speed="13.89" length="133.20" shape="133.20,161.20 0.00,161.20"/>
        <lane id="t_w_1" index="1" speed="13.89" length="133.20" shape="133.20,158.00 0.00,158.00"/>
        <lane id="t_w_2" index="2" speed="13.89" length="133.20" shape="133.20,154.80 0.00,154.80"/>
        <lane id="t_w_3" index="3" speed="13.89" length="133.20" shape="133.20,151.60 0.00,151.60"/>
    </edge>
    <edge id="w_t" from="w" to="t" priority="-1">
        <lane id="w_t_0" index="0" speed="13.89" length="133.20" shape="0.00,138.80 133.20,138.80"/>
        <lane id="w_t_1" index="1" speed="13.89" length="133.20" shape="0.00,142.00 133.20,142.00"/>
        <lane id="w_t_2" index="2" speed="13.89" length="133.20" shape="0.00,145.20 133.20,145.20"/>
        <lane id="w_t_3" index="3" speed="13.89" length="133.20" shape="0.00,148.40 133.20,148.40"/>
    </edge>

    <tlLogic id="tl_1" type="static" programID="0" offset="0">
        <phase duration="43" state="GGGGGGGGggggggggrrrrrrrrrrrrrrrrGGGGGGGGggggggggrrrrrrrrrrrrrrrr"/>
        <phase duration="3"  state="yyyyyyyyggggggggrrrrrrrrrrrrrrrryyyyyyyyggggggggrrrrrrrrrrrrrrrr"/>
        <phase duration="16" state="rrrrrrrrGGGGGGGGrrrrrrrrrrrrrrrrrrrrrrrrGGGGGGGGrrrrrrrrrrrrrrrr"/>
        <phase duration="3"  state="rrrrrrrryyyyyyyyrrrrrrrrrrrrrrrrrrrrrrrryyyyyyyyrrrrrrrrrrrrrrrr"/>
        <phase duration="53" state="rrrrrrrrrrrrrrrrGGGGGGGGggggggggrrrrrrrrrrrrrrrrGGGGGGGGgggggggg"/>
        <phase duration="3"  state="rrrrrrrrrrrrrrrryyyyyyyyggggggggrrrrrrrrrrrrrrrryyyyyyyygggggggg"/>
        <phase duration="16" state="rrrrrrrrrrrrrrrrrrrrrrrrGGGGGGGGrrrrrrrrrrrrrrrrrrrrrrrrGGGGGGGG"/>
        <phase duration="3"  state="rrrrrrrrrrrrrrrrrrrrrrrryyyyyyyyrrrrrrrrrrrrrrrrrrrrrrrryyyyyyyy"/>
    </tlLogic>

    <junction id="e" type="priority" x="300.00" y="150.00" incLanes="t_e_0 t_e_1 t_e_2 t_e_3" intLanes=":e_0_0" shape="300.00,150.00 300.00,137.20 300.00,150.00">
        <request index="0" response="0" foes="0" cont="0"/>
    </junction>
    <junction id="n" type="priority" x="150.00" y="300.00" incLanes="t_n_0 t_n_1 t_n_2 t_n_3" intLanes=":n_0_0" shape="150.00,300.00 162.80,300.00 150.00,300.00">
        <request index="0" response="0" foes="0" cont="0"/>
    </junction>
    <junction id="s" type="priority" x="150.00" y="0.00" incLanes="t_s_0 t_s_1 t_s_2 t_s_3" intLanes=":s_0_0" shape="150.00,-0.00 137.20,-0.00 150.00,-0.00">
        <request index="0" response="0" foes="0" cont="0"/>
    </junction>
    <junction id="t" type="traffic_light" x="150.00" y="150.00" incLanes="n_t_0 n_t_1 n_t_2 n_t_3 e_t_0 e_t_1 e_t_2 e_t_3 s_t_0 s_t_1 s_t_2 s_t_3 w_t_0 w_t_1 w_t_2 w_t_3" intLanes=":t_0_0 :t_0_1 :t_0_2 :t_0_3 :t_4_0 :t_4_1 :t_4_2 :t_4_3 :t_64_0 :t_65_0 :t_66_0 :t_67_0 :t_68_0 :t_69_0 :t_70_0 :t_71_0 :t_16_0 :t_16_1 :t_16_2 :t_16_3 :t_20_0 :t_20_1 :t_20_2 :t_20_3 :t_72_0 :t_73_0 :t_74_0 :t_75_0 :t_76_0 :t_77_0 :t_78_0 :t_79_0 :t_32_0 :t_32_1 :t_32_2 :t_32_3 :t_36_0 :t_36_1 :t_36_2 :t_36_3 :t_80_0 :t_81_0 :t_82_0 :t_83_0 :t_84_0 :t_85_0 :t_86_0 :t_87_0 :t_48_0 :t_48_1 :t_48_2 :t_48_3 :t_52_0 :t_52_1 :t_52_2 :t_52_3 :t_88_0 :t_89_0 :t_90_0 :t_91_0 :t_92_0 :t_93_0 :t_94_0 :t_95_0" shape="137.20,166.80 162.80,166.80 163.24,164.58 163.80,163.80 164.58,163.24 165.58,162.91 166.80,162.80 166.80,137.20 164.58,136.76 163.80,136.20 163.24,135.42 162.91,134.42 162.80,133.20 137.20,133.20 136.76,135.42 136.20,136.20 135.42,136.76 134.42,137.09 133.20,137.20 133.20,162.80 135.42,163.24 136.20,163.80 136.76,164.58 137.09,165.58">
        <request index="0"  response="0000000000000000000000000000000000000000000000000000000000000000" foes="1111000000000000000011110000000000000000111100000000000000000000" cont="0"/>
        <request index="1"  response="0000000000000000000000000000000000000000000000000000000000000000" foes="1111000000000000000011110000000000000000111100000000000000000000" cont="0"/>
        <request index="2"  response="0000000000000000000000000000000000000000000000000000000000000000" foes="1111000000000000000011110000000000000000111100000000000000000000" cont="0"/>
        <request index="3"  response="0000000000000000000000000000000000000000000000000000000000000000" foes="1111000000000000000011110000000000000000111100000000000000000000" cont="0"/>
        <request index="4"  response="0000111100000000000000000000000000001111000000000000000000000000" foes="0000111111111111111111110000000000001111111100000000000000000000" cont="0"/>
        <request index="5"  response="0000111100000000000000000000000000001111000000000000000000000000" foes="0000111111111111111111110000000000001111111100000000000000000000" cont="0"/>
        <request index="6"  response="0000111100000000000000000000000000001111000000000000000000000000" foes="0000111111111111111111110000000000001111111100000000000000000000" cont="0"/>
        <request index="7"  response="0000111100000000000000000000000000001111000000000000000000000000" foes="0000111111111111111111110000000000001111111100000000000000000000" cont="0"/>
        <request index="8"  response="0000111100000000000000001111111100001111000000000000000000000000" foes="0000111111110000000000001111111111111111111100000000000000000000" cont="1"/>
        <request index="9"  response="0000111100000000000000001111111100001111000000000000000000000000" foes="0000111111110000000000001111111111111111111100000000000000000000" cont="1"/>
        <request index="10" response="0000111100000000000000001111111100001111000000000000000000000000" foes="0000111111110000000000001111111111111111111100000000000000000000" cont="1"/>
        <request index="11" response="0000111100000000000000001111111100001111000000000000000000000000" foes="0000111111110000000000001111111111111111111100000000000000000000" cont="1"/>
        <request index="12" response="0000111100000000000000001111000000000000000011110000000000000000" foes="0000111100000000000000001111000000000000000011110000000000000000" cont="1"/>
        <request index="13" response="0000111100000000000000001111000000000000000011110000000000000000" foes="0000111100000000000000001111000000000000000011110000000000000000" cont="1"/>
        <request index="14" response="0000111100000000000000001111000000000000000011110000000000000000" foes="0000111100000000000000001111000000000000000011110000000000000000" cont="1"/>
        <request index="15" response="0000111100000000000000001111000000000000000011110000000000000000" foes="0000111100000000000000001111000000000000000011110000000000000000" cont="1"/>
        <request index="16" response="0000000000000000000000001111000000000000000000000000000000000000" foes="0000111100000000000000001111000000000000000000001111000000000000" cont="0"/>
        <request index="17" response="0000000000000000000000001111000000000000000000000000000000000000" foes="0000111100000000000000001111000000000000000000001111000000000000" cont="0"/>
        <request index="18" response="0000000000000000000000001111000000000000000000000000000000000000" foes="0000111100000000000000001111000000000000000000001111000000000000" cont="0"/>
        <request index="19" response="0000000000000000000000001111000000000000000000000000000000000000" foes="0000111100000000000000001111000000000000000000001111000000000000" cont="0"/>
        <request index="20" response="0000000000000000000011111111000000000000000000000000111111111111" foes="1111111100000000000011111111000000000000000000000000111111111111" cont="0"/>
        <request index="21" response="0000000000000000000011111111000000000000000000000000111111111111" foes="1111111100000000000011111111000000000000000000000000111111111111" cont="0"/>
        <request index="22" response="0000000000000000000011111111000000000000000000000000111111111111" foes="1111111100000000000011111111000000000000000000000000111111111111" cont="0"/>
        <request index="23" response="0000000000000000000011111111000000000000000000000000111111111111" foes="1111111100000000000011111111000000000000000000000000111111111111" cont="0"/>
        <request index="24" response="0000000011111111000011111111000000000000000000000000111111110000" foes="0000000011111111111111111111000000000000000000000000111111110000" cont="1"/>
        <request index="25" response="0000000011111111000011111111000000000000000000000000111111110000" foes="0000000011111111111111111111000000000000000000000000111111110000" cont="1"/>
        <request index="26" response="0000000011111111000011111111000000000000000000000000111111110000" foes="0000000011111111111111111111000000000000000000000000111111110000" cont="1"/>
        <request index="27" response="0000000011111111000011111111000000000000000000000000111111110000" foes="0000000011111111111111111111000000000000000000000000111111110000" cont="1"/>
        <request index="28" response="0000000011110000000000000000111100000000000000000000111100000000" foes="0000000011110000000000000000111100000000000000000000111100000000" cont="1"/>
        <request index="29" response="0000000011110000000000000000111100000000000000000000111100000000" foes="0000000011110000000000000000111100000000000000000000111100000000" cont="1"/>
        <request index="30" response="0000000011110000000000000000111100000000000000000000111100000000" foes="0000000011110000000000000000111100000000000000000000111100000000" cont="1"/>
        <request index="31" response="0000000011110000000000000000111100000000000000000000111100000000" foes="0000000011110000000000000000111100000000000000000000111100000000" cont="1"/>
        <request index="32" response="0000000000000000000000000000000000000000000000000000000000000000" foes="0000000011110000000000000000000011110000000000000000111100000000" cont="0"/>
        <request index="33" response="0000000000000000000000000000000000000000000000000000000000000000" foes="0000000011110000000000000000000011110000000000000000111100000000" cont="0"/>
        <request index="34" response="0000000000000000000000000000000000000000000000000000000000000000" foes="0000000011110000000000000000000011110000000000000000111100000000" cont="0"/>
        <request index="35" response="0000000000000000000000000000000000000000000000000000000000000000" foes="0000000011110000000000000000000011110000000000000000111100000000" cont="0"/>