<?xml version="1.0" encoding="UTF-8"?>

<!-- generated on 2024-06-12 16:41:43 by Eclipse SUMO netconvert Version 1.20.0
<configuration xmlns:xsi="http://www.w3.org/2001/XMLSchema-instance" xsi:noNamespaceSchemaLocation="http://sumo.dlr.de/xsd/netconvertConfiguration.xsd">

    <input>
        <node-files value="my-intersection.nod.xml"/>
        <edge-files value="my-intersection.edg.xml"/>
    </input>

    <output>
        <output-file value="my-intersection.net.xml"/>
    </output>

</configuration>
-->

<net version="1.20" junctionCornerDetail="5" limitTurnSpeed="5.50" xmlns:xsi="http://www.w3.org/2001/XMLSchema-instance" xsi:noNamespaceSchemaLocation="http://sumo.dlr.de/xsd/net_file.xsd">

    <location netOffset="150.00,150.00" convBoundary="0.00,0.00,300.00,300.00" origBoundary="-150.00,-150.00,150.00,150.00" projParameter="!"/>

    <edge id=":e_0" function="internal">
        <lane id=":e_0_0" index="0" speed="3.65" length="4.67" shape="300.00,148.40 301.20,149.20 301.60,150.00 301.20,150.80 300.00,151.60"/>
    </edge>
    <edge id=":n_0" function="internal">
        <lane id=":n_0_0" index="0" speed="3.65" length="4.67" shape="151.60,300.00 150.80,301.20 150.00,301.60 149.20,301.20 148.40,300.00"/>
    </edge>
    <edge id=":s_0" function="internal">
        <lane id=":s_0_0" index="0" speed="3.65" length="4.67" shape="148.40,0.00 149.20,-1.20 150.00,-1.60 150.80,-1.20 151.60,0.00"/>
    </edge>
    <edge id=":t_0" function="internal">
        <lane id=":t_0_0" index="0" speed="6.51" length="9.03" shape="138.80,166.80 138.45,164.35 137.40,162.60 135.65,161.55 133.20,161.20"/>
    </edge>
    <edge id=":t_1" function="internal">
        <lane id=":t_1_0" index="0" speed="13.89" length="33.60" shape="138.80,166.80 138.80,133.20"/>
        <lane id=":t_1_1" index="1" speed="13.89" length="33.60" shape="142.00,166.80 142.00,133.20"/>
        <lane id=":t_1_2" index="2" speed="13.89" length="33.60" shape="145.20,166.80 145.20,133.20"/>
        <lane id=":t_1_3" index="3" speed="13.89" length="33.60" shape="148.40,166.80 148.40,133.20"/>
    </edge>
    <edge id=":t_5" function="internal">
        <lane id=":t_5_0" index="0" speed="11.36" length="5.01" shape="148.40,166.80 149.11,161.84"/>
    </edge>
    <edge id=":t_6" function="internal">
        <lane id=":t_6_0" index="0" speed="3.65" length="1.44" shape="148.40,166.80 149.20,165.60"/>
    </edge>
    <edge id=":t_28" function="internal">
        <lane id=":t_28_0" index="0" speed="11.36" length="24.66" shape="149.11,161.84 149.55,158.75 153.00,153.00 158.75,149.55 166.80,148.40"/>
    </edge>
    <edge id=":t_29" function="internal">
        <lane id=":t_29_0" index="0" speed="3.65" length="3.23" shape="149.20,165.60 150.00,165.20 150.80,165.60 151.60,166.80"/>
    </edge>
    <edge id=":t_7" function="internal">
        <lane id=":t_7_0" index="0" speed="6.51" length="9.03" shape="166.80,161.20 164.35,161.55 162.60,162.60 161.55,164.35 161.20,166.80"/>
    </edge>
    <edge id=":t_8" function="internal">
        <lane id=":t_8_0" index="0" speed="13.89" length="33.60" shape="166.80,161.20 133.20,161.20"/>
        <lane id=":t_8_1" index="1" speed="13.89" length="33.60" shape="166.80,158.00 133.20,158.00"/>
        <lane id=":t_8_2" index="2" speed="13.89" length="33.60" shape="166.80,154.80 133.20,154.80"/>
        <lane id=":t_8_3" index="3" speed="13.89" length="33.60" shape="166.80,151.60 133.20,151.60"/>
    </edge>
    <edge id=":t_12" function="internal">
        <lane id=":t_12_0" index="0" speed="11.36" length="5.01" shape="166.80,151.60 161.84,150.89"/>
    </edge>
    <edge id=":t_13" function="internal">
        <lane id=":t_13_0" index="0" speed="3.65" length="1.44" shape="166.80,151.60 165.60,150.80"/>
    </edge>
    <edge id=":t_30" function="internal">
        <lane id=":t_30_0" index="0" speed="11.36" length="24.66" shape="161.84,150.89 158.75,150.45 153.00,147.00 149.55,141.25 148.40,133.20"/>
    </edge>
    <edge id=":t_31" function="internal">
        <lane id=":t_31_0" index="0" speed="3.65" length="3.23" shape="165.60,150.80 165.20,150.00 165.60,149.20 166.80,148.40"/>
    </edge>
    <edge id=":t_14" function="internal">
        <lane id=":t_14_0" index="0" speed="6.51" length="9.03" shape="161.20,133.20 161.55,135.65 162.60,137.40 164.35,138.45 166.80,138.80"/>
    </edge>
    <edge id=":t_15" function="internal">
        <lane id=":t_15_0" index="0" speed="13.89" length="33.60" shape="161.20,133.20 161.20,166.80"/>
        <lane id=":t_15_1" index="1" speed="13.89" length="33.60" shape="158.00,133.20 158.00,166.80"/>
        <lane id=":t_15_2" index="2" speed="13.89" length="33.60" shape="154.80,133.20 154.80,166.80"/>
        <lane id=":t_15_3" index="3" speed="13.89" length="33.60" shape="151.60,133.20 151.60,166.80"/>
    </edge>
    <edge id=":t_19" function="internal">
        <lane id=":t_19_0" index="0" speed="11.36" length="5.01" shape="151.60,133.20 150.89,138.16"/>
    </edge>
    <edge id=":t_20" function="internal">
        <lane id=":t_20_0" index="0" speed="3.65" length="1.44" shape="151.60,133.20 150.80,134.40"/>
    </edge>
    <edge id=":t_32" function="internal">
        <lane id=":t_32_0" index="0" speed="11.36" length="24.66" shape="150.89,138.16 150.45,141.25 147.00,147.00 141.25,150.45 133.20,151.60"/>
    </edge>
    <edge id=":t_33" function="internal">
        <lane id=":t_33_0" index="0" speed="3.65" length="3.23" shape="150.80,134.40 150.00,134.80 149.20,134.40 148.40,133.20"/>
    </edge>
    <edge id=":t_21" function="internal">
        <lane id=":t_21_0" index="0" speed="6.51" length="9.03" shape="133.20,138.80 135.65,138.45 137.40,137.40 138.45,135.65 138.80,133.20"/>
    </edge>
    <edge id=":t_22" function="internal">
        <lane id=":t_22_0" index="0" speed="13.89" length="33.60" shape="133.20,138.80 166.80,138.80"/>
        <lane id=":t_22_1" index="1" speed="13.89" length="33.60" shape="133.20,142.00 166.80,142.00"/>
        <lane id=":t_22_2" index="2" speed="13.89" length="33.60" shape="133.20,145.20 166.80,145.20"/>
        <lane id=":t_22_3" index="3" speed="13.89" length="33.60" shape="133.20,148.40 166.80,148.40"/>
    </edge>
    <edge id=":t_26" function="internal">
        <lane id=":t_26_0" index="0" speed="11.36" length="5.01" shape="133.20,148.40 138.16,149.11"/>
    </edge>
    <edge id=":t_27" function="internal">
        <lane id=":t_27_0" index="0" speed="3.65" length="1.44" shape="133.20,148.40 134.40,149.20"/>
    </edge>
    <edge id=":t_34" function="internal">
        <lane id=":t_34_0" index="0" speed="11.36" length="24.66" shape="138.16,149.11 141.25,149.55 147.00,153.00 150.45,158.75 151.60,166.80"/>
    </edge>
    <edge id=":t_35" function="internal">
        <lane id=":t_35_0" index="0" speed="3.65" length="3.23" shape="134.40,149.20 134.80,150.00 134.40,150.80 133.20,151.60"/>
    </edge>
    <edge id=":w_0" function="internal">
        <lane id=":w_0_0" index="0" speed="3.65" length="4.67" shape="0.00,151.60 -1.20,150.80 -1.60,150.00 -1.20,149.20 0.00,148.40"/>
    </edge>

    <edge id="e_t" from="e" to="t" priority="-1">
        <lane id="e_t_0" index="0" speed="13.89" length="133.20" shape="300.00,161.20 166.80,161.20"/>
        <lane id="e_t_1" index="1" speed="13.89" length="133.20" shape="300.00,158.00 166.80,158.00"/>
        <lane id="e_t_2" index="2" speed="13.89" length="133.20" shape="300.00,154.80 166.80,154.80"/>
        <lane id="e_t_3" index="3" speed="13.89" length="133.20" shape="300.00,151.60 166.80,151.60"/>
    </edge>
    <edge id="n_t" from="n" to="t" priority="-1">
        <lane id="n_t_0" index="0" speed="13.89" length="133.20" shape="138.80,300.00 138.80,166.80"/>
        <lane id="n_t_1" index="1" speed="13.89" length="133.20" shape="142.00,300.00 142.00,166.80"/>
        <lane id="n_t_2" index="2" speed="13.89" length="133.20" shape="145.20,300.00 145.20,166.80"/>
        <lane id="n_t_3" index="3" speed="13.89" length="133.20" shape="148.40,300.00 148.40,166.80"/>
    </edge>
    <edge id="s_t" from="s" to="t" priority="-1">
        <lane id="s_t_0" index="0" speed="13.89" length="133.20" shape="161.20,0.00 161.20,133.20"/>
        <lane id="s_t_1" index="1" speed="13.89" length="133.20" shape="158.00,0.00 158.00,133.20"/>
        <lane id="s_t_2" index="2" speed="13.89" length="133.20" shape="154.80,0.00 154.80,133.20"/>
        <lane id="s_t_3" index="3" speed="13.89" length="133.20" shape="151.60,0.00 151.60,133.20"/>
    </edge>
    <edge id="t_e" from="t" to="e" priority="-1">
        <lane id="t_e_0" index="0" speed="13.89" length="133.20" shape="166.80,138.80 300.00,138.80"/>
        <lane id="t_e_1" index="1" speed="13.89" length="133.20" shape="166.80,142.00 300.00,142.00"/>
        <lane id="t_e_2" index="2" speed="13.89" length="133.20" shape="166.80,145.20 300.00,145.20"/>
        <lane id="t_e_3" index="3" speed="13.89" length="133.20" shape="166.80,148.40 300.00,148.40"/>
    </edge>
    <edge id="t_n" from="t" to="n" priority="-1">
        <lane id="t_n_0" index="0" speed="13.89" length="133.20" shape="161.20,166.80 161.20,300.00"/>
        <lane id="t_n_1" index="1" speed="13.89" length="133.20" shape="158.00,166.80 158.00,300.00"/>
        <lane id="t_n_2" index="2" speed="13.89" length="133.20" shape="154.80,166.80 154.80,300.00"/>
        <lane id="t_n_3" index="3" speed="13.89" length="133.20" shape="151.60,166.80 151.60,300.00"/>
    </edge>
    <edge id="t_s" from="t" to="s" priority="-1">
        <lane id="t_s_0" index="0" speed="13.89" length="133.20" shape="138.80,133.20 138.80,0.00"/>
        <lane id="t_s_1" index="1" speed="13.89" length="133.20" shape="142.00,133.20 142.00,0.00"/>
        <lane id="t_s_2" index="2" speed="13.89" length="133.20" shape="145.20,133.20 145.20,0.00"/>
        <lane id="t_s_3" index="3" speed="13.89" length="133.20" shape="148.40,133.20 148.40,0.00"/>
    </edge>
    <edge id="t_w" from="t" to="w" priority="-1">
        <lane id="t_w_0" index="0" speed="13.89" length="133.20" shape="133.20,161.20 0.00,161.20"/>
        <lane id="t_w_1" index="1" speed="13.89" length="133.20" shape="133.20,158.00 0.00,158.00"/>
        <lane id="t_w_2" index="2" speed="13.89" length="133.20" shape="133.20,154.80 0.00,154.80"/>
        <lane id="t_w_3" index="3" speed="13.89" length="133.20" shape="133.20,151.60 0.00,151.60"/>
    </edge>
    <edge id="w_t" from="w" to="t" priority="-1">
        <lane id="w_t_0" index="0" speed="13.89" length="133.20" shape="0.00,138.80 133.20,138.80"/>
        <lane id="w_t_1" index="1" speed="13.89" length="133.20" shape="0.00,142.00 133.20,142.00"/>
        <lane id="w_t_2" index="2" speed="13.89" length="133.20" shape="0.00,145.20 133.20,145.20"/>
        <lane id="w_t_3" index="3" speed="13.89" length="133.20" shape="0.00,148.40 133.20,148.40"/>
    </edge>

    <tlLogic id="tl_1" type="actuated" programID="0" offset="0">
        <phase duration="42" state="GGGGGggrrrrrrrGGGGGggrrrrrrr" minDur="5" maxDur="50"/>
        <phase duration="3"  state="yyyyyyyrrrrrrryyyyyyyrrrrrrr"/>
        <phase duration="42" state="rrrrrrrGGGGGggrrrrrrrGGGGGgg" minDur="5" maxDur="50"/>
        <phase duration="3"  state="rrrrrrryyyyyyyrrrrrrryyyyyyy"/>
    </tlLogic>

    <junction id="e" type="priority" x="300.00" y="150.00" incLanes="t_e_0 t_e_1 t_e_2 t_e_3" intLanes=":e_0_0" shape="300.00,150.00 300.00,137.20 300.00,150.00">
        <request index="0" response="0" foes="0" cont="0"/>
    </junction>
    <junction id="n" type="priority" x="150.00" y="300.00" incLanes="t_n_0 t_n_1 t_n_2 t_n_3" intLanes=":n_0_0" shape="150.00,300.00 162.80,300.00 150.00,300.00">
        <request index="0" response="0" foes="0" cont="0"/>
    </junction>
    <junction id="s" type="priority" x="150.00" y="0.00" incLanes="t_s_0 t_s_1 t_s_2 t_s_3" intLanes=":s_0_0" shape="150.00,-0.00 137.20,-0.00 150.00,-0.00">
        <request index="0" response="0" foes="0" cont="0"/>
    </junction>
    <junction id="t" type="traffic_light" x="150.00" y="150.00" incLanes="n_t_0 n_t_1 n_t_2 n_t_3 e_t_0 e_t_1 e_t_2 e_t_3 s_t_0 s_t_1 s_t_2 s_t_3 w_t_0 w_t_1 w_t_2 w_t_3" intLanes=":t_0_0 :t_1_0 :t_1_1 :t_1_2 :t_1_3 :t_28_0 :t_29_0 :t_7_0 :t_8_0 :t_8_1 :t_8_2 :t_8_3 :t_30_0 :t_31_0 :t_14_0 :t_15_0 :t_15_1 :t_15_2 :t_15_3 :t_32_0 :t_33_0 :t_21_0 :t_22_0 :t_22_1 :t_22_2 :t_22_3 :t_34_0 :t_35_0" shape="137.20,166.80 162.80,166.80 163.24,164.58 163.80,163.80 164.58,163.24 165.58,162.91 166.80,162.80 166.80,137.20 164.58,136.76 163.80,136.20 163.24,135.42 162.91,134.42 162.80,133.20 137.20,133.20 136.76,135.42 136.20,136.20 135.42,136.76 134.42,137.09 133.20,137.20 133.20,162.80 135.42,163.24 136.20,163.80 136.76,164.58 137.09,165.58">
        <request index="0"  response="0000000000000000000000000000" foes="0000000000000000111100000000" cont="0"/>
        <request index="1"  response="0100000000000001000000000000" foes="0111111110000001111100000000" cont="0"/>
        <request index="2"  response="0100000000000001000000000000" foes="0111111110000001111100000000" cont="0"/>
        <request index="3"  response="0100000000000001000000000000" foes="0111111110000001111100000000" cont="0"/>
        <request index="4"  response="0100000000000001000000000000" foes="0111111110000001111100000000" cont="0"/>
        <request index="5"  response="0100000001111001000000000000" foes="0111110001111011111100000000" cont="1"/>
        <request index="6"  response="0100000001111000000000000000" foes="0100000001111000000000000000" cont="1"/>
        <request index="7"  response="0000000001111000000000000000" foes="0000000001111000000000000000" cont="0"/>
        <request index="8"  response="0000000011111000000000111111" foes="1100000011111000000000111111" cont="0"/>
        <request index="9"  response="0000000011111000000000111111" foes="1100000011111000000000111111" cont="0"/>
        <request index="10" response="0000000011111000000000111111" foes="1100000011111000000000111111" cont="0"/>
        <request index="11" response="0000000011111000000000111111" foes="1100000011111000000000111111" cont="0"/>
        <request index="12" response="0011110011111000000000111110" foes="0011110111111000000000111110" cont="1"/>
        <request index="13" response="0011110000000000000000100000" foes="0011110000000000000000100000" cont="1"/>
        <request index="14" response="0000000000000000000000000000" foes="0011110000000000000000000000" cont="0"/>
        <request index="15" response="0100000000000001000000000000" foes="0111110000000001111111100000" cont="0"/>
        <request index="16" response="0100000000000001000000000000" foes="0111110000000001111111100000" cont="0"/>
        <request index="17" response="0100000000000001000000000000" foes="0111110000000001111111100000" cont="0"/>
        <request index="18" response="0100000000000001000000000000" foes="0111110000000001111111100000" cont="0"/>
        <request index="19" response="0100000000000001000000011110" foes="1111110000000001111100011110" cont="1"/>
        <request index="20" response="0000000000000001000000011110" foes="0000000000000001000000011110" cont="1"/>
        <request index="21" response="0000000000000000000000011110" foes="0000000000000000000000011110" cont="0"/>
        <request index="22" response="0000000011111100000000111110" foes="0000000011111111000000111110" cont="0"/>
        <request index="23" response="0000000011111100000000111110" foes="0000000011111111000000111110" cont="0"/>
        <request index="24" response="0000000011111100000000111110" foes="0000000011111111000000111110" cont="0"/>
        <request index="25" response="0000000011111100000000111110" foes="0000000011111111000000111110" cont="0"/>
        <request index="26" response="0000000011111000111100111110" foes="0000000011111000111101111110" cont="1"/>
        <request index="27" response="0000000010000000111100000000" foes="0000000010000000111100000000" cont="1"/>
    </junction>
    <junction id="w" type="priority" x="0.00" y="150.00" incLanes="t_w_0 t_w_1 t_w_2 t_w_3" intLanes=":w_0_0" shape="-0.00,150.00 -0.00,162.80 -0.00,150.00">
        <request index="0" response="0" foes="0" cont="0"/>
    </junction>

    <junction id=":t_28_0" type="internal" x="149.11" y="161.84" incLanes=":t_5_0 s_t_0 s_t_1 s_t_2 s_t_3" intLanes=":t_8_0 :t_8_1 :t_8_2 :t_8_3 :t_12_0 :t_13_0 :t_14_0 :t_15_0 :t_15_1 :t_15_2 :t_15_3 :t_22_0 :t_22_1 :t_22_2 :t_22_3 :t_26_0"/>
    <junction id=":t_29_0" type="internal" x="149.20" y="165.60" incLanes=":t_6_0 e_t_0 s_t_0 s_t_1 s_t_2 s_t_3 w_t_3" intLanes=":t_7_0 :t_15_0 :t_15_1 :t_15_2 :t_15_3 :t_26_0"/>
    <junction id=":t_30_0" type="internal" x="161.84" y="150.89" incLanes=":t_12_0 w_t_0 w_t_1 w_t_2 w_t_3" intLanes=":t_1_0 :t_1_1 :t_1_2 :t_1_3 :t_5_0 :t_15_0 :t_15_1 :t_15_2 :t_15_3 :t_19_0 :t_20_0 :t_21_0 :t_22_0 :t_22_1 :t_22_2 :t_22_3"/>
    <junction id=":t_31_0" type="internal" x="165.60" y="150.80" incLanes=":t_13_0 n_t_3 s_t_0 w_t_0 w_t_1 w_t_2 w_t_3" intLanes=":t_5_0 :t_14_0 :t_22_0 :t_22_1 :t_22_2 :t_22_3"/>
    <junction id=":t_32_0" type="internal" x="150.89" y="138.16" incLanes=":t_19_0 n_t_0 n_t_1 n_t_2 n_t_3" intLanes=":t_0_0 :t_1_0 :t_1_1 :t_1_2 :t_1_3 :t_8_0 :t_8_1 :t_8_2 :t_8_3 :t_12_0 :t_22_0 :t_22_1 :t_22_2 :t_22_3 :t_26_0 :t_27_0"/>
    <junction id=":t_33_0" type="internal" x="150.80" y="134.40" incLanes=":t_20_0 e_t_3 n_t_0 n_t_1 n_t_2 n_t_3 w_t_0" intLanes=":t_1_0 :t_1_1 :t_1_2 :t_1_3 :t_12_0 :t_21_0"/>
    <junction id=":t_34_0" type="internal" x="138.16" y="149.11" incLanes=":t_26_0 e_t_0 e_t_1 e_t_2 e_t_3" intLanes=":t_1_0 :t_1_1 :t_1_2 :t_1_3 :t_5_0 :t_6_0 :t_7_0 :t_8_0 :t_8_1 :t_8_2 :t_8_3 :t_15_0 :t_15_1 :t_15_2 :t_15_3 :t_19_0"/>
    <junction id=":t_35_0" type="internal" x="134.40" y="149.20" incLanes=":t_27_0 e_t_0 e_t_1 e_t_2 e_t_3 n_t_0 s_t_3" intLanes=":t_0_0 :t_8_0 :t_8_1 :t_8_2 :t_8_3 :t_19_0"/>

    <connection from="e_t" to="t_n" fromLane="0" toLane="0" via=":t_7_0" tl="tl_1" linkIndex="7" dir="r" state="o"/>
    <connection from="e_t" to="t_w" fromLane="0" toLane="0" via=":t_8_0" tl="tl_1" linkIndex="8" dir="s" state="o"/>
    <connection from="e_t" to="t_w" fromLane="1" toLane="1" via=":t_8_1" tl="tl_1" linkIndex="9" dir="s" state="o"/>
    <connection from="e_t" to="t_w" fromLane="2" toLane="2" via=":t_8_2" tl="tl_1" linkIndex="10" dir="s" state="o"/>
    <connection from="e_t" to="t_w" fromLane="3" toLane="3" via=":t_8_3" tl="tl_1" linkIndex="11" dir="s" state="o"/>
    <connection from="e_t" to="t_s" fromLane="3" toLane="3" via=":t_12_0" tl="tl_1" linkIndex="12" dir="l" state="o"/>
    <connection from="e_t" to="t_e" fromLane="3" toLane="3" via=":t_13_0" tl="tl_1" linkIndex="13" dir="t" state="o"/>
    <connection from="n_t" to="t_w" fromLane="0" toLane="0" via=":t_0_0" tl="tl_1" linkIndex="0" dir="r" state="O"/>
    <connection from="n_t" to="t_s" fromLane="0" toLane="0" via=":t_1_0" tl="tl_1" linkIndex="1" dir="s" state="O"/>
    <connection from="n_t" to="t_s" fromLane="1" toLane="1" via=":t_1_1" tl="tl_1" linkIndex="2" dir="s" state="O"/>
    <connection from="n_t" to="t_s" fromLane="2" toLane="2" via=":t_1_2" tl="tl_1" linkIndex="3" dir="s" state="O"/>
    <connection from="n_t" to="t_s" fromLane="3" toLane="3" via=":t_1_3" tl="tl_1" linkIndex="4" dir="s" state="O"/>
    <connection from="n_t" to="t_e" fromLane="3" toLane="3" via=":t_5_0" tl="tl_1" linkIndex="5" dir="l" state="o"/>
    <connection from="n_t" to="t_n" fromLane="3" toLane="3" via=":t_6_0" tl="tl_1" linkIndex="6" dir="t" state="o"/>
    <connection from="s_t" to="t_e" fromLane="0" toLane="0" via=":t_14_0" tl="tl_1" linkIndex="14" dir="r" state="O"/>
    <connection from="s_t" to="t_n" fromLane="0" toLane="0" via=":t_15_0" tl="tl_1" linkIndex="15" dir="s" state="O"/>
    <connection from="s_t" to="t_n" fromLane="1" toLane="1" via=":t_15_1" tl="tl_1" linkIndex="16" dir="s" state="O"/>
    <connection from="s_t" to="t_n" fromLane="2" toLane="2" via=":t_15_2" tl="tl_1" linkIndex="17" dir="s" state="O"/>
    <connection from="s_t" to="t_n" fromLane="3" toLane="3" via=":t_15_3" tl="tl_1" linkIndex="18" dir="s" state="O"/>
    <connection from="s_t" to="t_w" fromLane="3" toLane="3" via=":t_19_0" tl="tl_1" linkIndex="19" dir="l" state="o"/>
    <connection from="s_t" to="t_s" fromLane="3" toLane="3" via=":t_20_0" tl="tl_1" linkIndex="20" dir="t" state="o"/>
    <connection from="t_e" to="e_t" fromLane="3" toLane="3" via=":e_0_0" dir="t" state="M"/>
    <connection from="t_n" to="n_t" fromLane="3" toLane="3" via=":n_0_0" dir="t" state="M"/>
    <connection from="t_s" to="s_t" fromLane="3" toLane="3" via=":s_0_0" dir="t" state="M"/>
    <connection from="t_w" to="w_t" fromLane="3" toLane="3" via=":w_0_0" dir="t" state="M"/>
    <connection from="w_t" to="t_s" fromLane="0" toLane="0" via=":t_21_0" tl="tl_1" linkIndex="21" dir="r" state="o"/>
    <connection from="w_t" to="t_e" fromLane="0" toLane="0" via=":t_22_0" tl="tl_1" linkIndex="22" dir="s" state="o"/>
    <connection from="w_t" to="t_e" fromLane="1" toLane="1" via=":t_22_1" tl="tl_1" linkIndex="23" dir="s" state="o"/>
    <connection from="w_t" to="t_e" fromLane="2" toLane="2" via=":t_22_2" tl="tl_1" linkIndex="24" dir="s" state="o"/>
    <connection from="w_t" to="t_e" fromLane="3" toLane="3" via=":t_22_3" tl="tl_1" linkIndex="25" dir="s" state="o"/>
    <connection from="w_t" to="t_n" fromLane="3" toLane="3" via=":t_26_0" tl="tl_1" linkIndex="26" dir="l" state="o"/>
    <connection from="w_t" to="t_w" fromLane="3" toLane="3" via=":t_27_0" tl="tl_1" linkIndex="27" dir="t" state="o"/>

    <connection from=":e_0" to="e_t" fromLane="0" toLane="3" dir="t" state="M"/>
    <connection from=":n_0" to="n_t" fromLane="0" toLane="3" dir="t" state="M"/>
    <connection from=":s_0" to="s_t" fromLane="0" toLane="3" dir="t" state="M"/>
    <connection from=":t_0" to="t_w" fromLane="0" toLane="0" dir="r" state="M"/>
    <connection from=":t_1" to="t_s" fromLane="0" toLane="0" dir="s" state="M"/>
    <connection from=":t_1" to="t_s" fromLane="1" toLane="1" dir="s" state="M"/>
    <connection from=":t_1" to="t_s" fromLane="2" toLane="2" dir="s" state="M"/>
    <connection from=":t_1" to="t_s" fromLane="3" toLane="3" dir="s" state="M"/>
    <connection from=":t_5" to="t_e" fromLane="0" toLane="3" via=":t_28_0" dir="l" state="m"/>
    <connection from=":t_28" to="t_e" fromLane="0" toLane="3" dir="l" state="M"/>
    <connection from=":t_6" to="t_n" fromLane="0" toLane="3" via=":t_29_0" dir="t" state="m"/>
    <connection from=":t_29" to="t_n" fromLane="0" toLane="3" dir="t" state="M"/>
    <connection from=":t_7" to="t_n" fromLane="0" toLane="0" dir="r" state="M"/>
    <connection from=":t_8" to="t_w" fromLane="0" toLane="0" dir="s" state="M"/>
    <connection from=":t_8" to="t_w" fromLane="1" toLane="1" dir="s" state="M"/>
    <connection from=":t_8" to="t_w" fromLane="2" toLane="2" dir="s" state="M"/>
    <connection from=":t_8" to="t_w" fromLane="3" toLane="3" dir="s" state="M"/>
    <connection from=":t_12" to="t_s" fromLane="0" toLane="3" via=":t_30_0" dir="l" state="m"/>
    <connection from=":t_30" to="t_s" fromLane="0" toLane="3" dir="l" state="M"/>
    <connection from=":t_13" to="t_e" fromLane="0" toLane="3" via=":t_31_0" dir="t" state="m"/>
    <connection from=":t_31" to="t_e" fromLane="0" toLane="3" dir="t" state="M"/>
    <connection from=":t_14" to="t_e" fromLane="0" toLane="0" dir="r" state="M"/>
    <connection from=":t_15" to="t_n" fromLane="0" toLane="0" dir="s" state="M"/>
    <connection from=":t_15" to="t_n" fromLane="1" toLane="1" dir="s" state="M"/>
    <connection from=":t_15" to="t_n" fromLane="2" toLane="2" dir="s" state="M"/>
    <connection from=":t_15" to="t_n" fromLane="3" toLane="3" dir="s" state="M"/>
    <connection from=":t_19" to="t_w" fromLane="0" toLane="3" via=":t_32_0" dir="l" state="m"/>
    <connection from=":t_32" to="t_w" fromLane="0" toLane="3" dir="l" state="M"/>
    <connection from=":t_20" to="t_s" fromLane="0" toLane="3" via=":t_33_0" dir="t" state="m"/>
    <connection from=":t_33" to="t_s" fromLane="0" toLane="3" dir="t" state="M"/>
    <connection from=":t_21" to="t_s" fromLane="0" toLane="0" dir="r" state="M"/>
    <connection from=":t_22" to="t_e" fromLane="0" toLane="0" dir="s" state="M"/>
    <connection from=":t_22" to="t_e" fromLane="1" toLane="1" dir="s" state="M"/>
    <connection from=":t_22" to="t_e" fromLane="2" toLane="2" dir="s" state="M"/>
    <connection from=":t_22" to="t_e" fromLane="3" toLane="3" dir="s" state="M"/>
    <connection from=":t_26" to="t_n" fromLane="0" toLane="3" via=":t_34_0" dir="l" state="m"/>
    <connection from=":t_34" to="t_n" fromLane="0" toLane="3" dir="l" state="M"/>
    <connection from=":t_27" to="t_w" fromLane="0" toLane="3" via=":t_35_0" dir="t" state="m"/>
    <connection from=":t_35" to="t_w" fromLane="0" toLane="3" dir="t" state="M"/>
    <connection from=":w_0" to="w_t" fromLane="0" toLane="3" dir="t" state="M"/>

</net>
